
CrystalSpace IVCON Import/Export Log

Input file: convtemp.3DS
Output file: {none}
DATA_REPORT - The input file contains:

  Bad data items             0
  Text lines                 0
  Colors                     0
  Comments                   0
  Duplicate points           0
  Faces                      6456
  Groups                     0
  Vertices per face, maximum 3
  Line items                 0
  Points                     3264
  Objects                    0

SET_VERTEX_NORMAL: Recomputed 19368 face vertex normals.

AVE_FACE_NORMAL: Recomputed 6456 face normals
  by averaging face vertex normals.

MINMAX - Data range:

   Minimum   Average   Maximum  Range

X  -230.727921 -11.131607 199.933792 430.661713
Y  -252.825745 1.230821 237.132523 489.958267
Z  -485.068512 -88.905571 125.848976 610.917488

CrystalSpace IVCON Import/Export Log

Input file: convtemp.3ds
Output file: {none}
DATA_REPORT - The input file contains:

  Bad data items             0
  Text lines                 0
  Colors                     0
  Comments                   0
  Duplicate points           0
  Faces                      1087
  Groups                     0
  Vertices per face, maximum 3
  Line items                 0
  Points                     596
  Objects                    0

SET_VERTEX_NORMAL: Recomputed 3261 face vertex normals.

AVE_FACE_NORMAL: Recomputed 1087 face normals
  by averaging face vertex normals.

MINMAX - Data range:

   Minimum   Average   Maximum  Range

X  -7.911269 0.037459 7.948729 15.859998
Y  -11.353171 -3.763129 7.590044 18.943215
Z  0.352159 8.007787 19.593138 19.240979

CrystalSpace IVCON Import/Export Log

Input file: convtemp.3ds
Output file: {none}
DATA_REPORT - The input file contains:

  Bad data items             0
  Text lines                 0
  Colors                     0
  Comments                   0
  Duplicate points           0
  Faces                      723
  Groups                     0
  Vertices per face, maximum 3
  Line items                 0
  Points                     385
  Objects                    0

SET_VERTEX_NORMAL: Recomputed 2169 face vertex normals.

AVE_FACE_NORMAL: Recomputed 723 face normals
  by averaging face vertex normals.

MINMAX - Data range:

   Minimum   Average   Maximum  Range

X  -18.799999 7.515299 38.396099 57.196098
Y  -74.000000 -39.049202 0.000000 74.000000
Z  -0.000000 17.622810 22.799999 22.799999

CrystalSpace IVCON Import/Export Log

Input file: convtemp.3ds
Output file: {none}
DATA_REPORT - The input file contains:

  Bad data items             0
  Text lines                 0
  Colors                     0
  Comments                   0
  Duplicate points           0
  Faces                      2672
  Groups                     0
  Vertices per face, maximum 3
  Line items                 0
  Points                     1418
  Objects                    0

SET_VERTEX_NORMAL: Recomputed 8016 face vertex normals.

AVE_FACE_NORMAL: Recomputed 2672 face normals
  by averaging face vertex normals.

MINMAX - Data range:

   Minimum   Average   Maximum  Range

X  -4.728093 0.696247 4.771907 9.500000
Y  -4.791592 -0.035084 4.708411 9.500003
Z  0.206267 10.056189 16.777769 16.571502

CrystalSpace IVCON Import/Export Log

Input file: convtemp.3ds
Output file: {none}
DATA_REPORT - The input file contains:

  Bad data items             0
  Text lines                 0
  Colors                     0
  Comments                   0
  Duplicate points           0
  Faces                      320
  Groups                     0
  Vertices per face, maximum 3
  Line items                 0
  Points                     176
  Objects                    0

SET_VERTEX_NORMAL: Recomputed 960 face vertex normals.

AVE_FACE_NORMAL: Recomputed 320 face normals
  by averaging face vertex normals.

MINMAX - Data range:

   Minimum   Average   Maximum  Range

X  -3.157044 0.356710 3.710357 6.867401
Y  -2.346104 1.261024 3.895278 6.241381
Z  0.347031 1.322281 2.300923 1.953892

CrystalSpace IVCON Import/Export Log

Input file: convtemp.3ds
Output file: {none}
DATA_REPORT - The input file contains:

  Bad data items             0
  Text lines                 0
  Colors                     0
  Comments                   0
  Duplicate points           0
  Faces                      2120
  Groups                     0
  Vertices per face, maximum 3
  Line items                 0
  Points                     1080
  Objects                    0

SET_VERTEX_NORMAL: Recomputed 6360 face vertex normals.

AVE_FACE_NORMAL: Recomputed 2120 face normals
  by averaging face vertex normals.

MINMAX - Data range:

   Minimum   Average   Maximum  Range

X  -9.294492 -0.258839 10.901754 20.196246
Y  -4.369236 0.248494 2.566483 6.935719
Z  0.019493 1.669340 3.260172 3.240678

CrystalSpace IVCON Import/Export Log

Input file: convtemp.3ds
Output file: {none}
DATA_REPORT - The input file contains:

  Bad data items             0
  Text lines                 0
  Colors                     0
  Comments                   0
  Duplicate points           0
  Faces                      12
  Groups                     0
  Vertices per face, maximum 3
  Line items                 0
  Points                     24
  Objects                    0

SET_VERTEX_NORMAL: Recomputed 36 face vertex normals.

AVE_FACE_NORMAL: Recomputed 12 face normals
  by averaging face vertex normals.

MINMAX - Data range:

   Minimum   Average   Maximum  Range

X  -0.499000 0.001000 0.501000 1.000000
Y  -0.499000 0.001000 0.501000 1.000000
Z  0.021492 0.521492 1.021492 1.000000

CrystalSpace IVCON Import/Export Log

Input file: convtemp.3DS
Output file: {none}
DATA_REPORT - The input file contains:

  Bad data items             0
  Text lines                 0
  Colors                     0
  Comments                   0
  Duplicate points           0
  Faces                      6456
  Groups                     0
  Vertices per face, maximum 3
  Line items                 0
  Points                     3264
  Objects                    0

SET_VERTEX_NORMAL: Recomputed 19368 face vertex normals.

AVE_FACE_NORMAL: Recomputed 6456 face normals
  by averaging face vertex normals.

MINMAX - Data range:

   Minimum   Average   Maximum  Range

X  -230.727921 -11.131607 199.933792 430.661713
Y  -252.825745 1.230821 237.132523 489.958267
Z  -485.068512 -88.905571 125.848976 610.917488

CrystalSpace IVCON Import/Export Log

Input file: convtemp.3ds
Output file: {none}
DATA_REPORT - The input file contains:

  Bad data items             0
  Text lines                 0
  Colors                     0
  Comments                   0
  Duplicate points           0
  Faces                      1087
  Groups                     0
  Vertices per face, maximum 3
  Line items                 0
  Points                     596
  Objects                    0

SET_VERTEX_NORMAL: Recomputed 3261 face vertex normals.

AVE_FACE_NORMAL: Recomputed 1087 face normals
  by averaging face vertex normals.

MINMAX - Data range:

   Minimum   Average   Maximum  Range

X  -7.911269 0.037459 7.948729 15.859998
Y  -11.353171 -3.763129 7.590044 18.943215
Z  0.352159 8.007787 19.593138 19.240979

CrystalSpace IVCON Import/Export Log

Input file: convtemp.3ds
Output file: {none}
DATA_REPORT - The input file contains:

  Bad data items             0
  Text lines                 0
  Colors                     0
  Comments                   0
  Duplicate points           0
  Faces                      723
  Groups                     0
  Vertices per face, maximum 3
  Line items                 0
  Points                     385
  Objects                    0

SET_VERTEX_NORMAL: Recomputed 2169 face vertex normals.

AVE_FACE_NORMAL: Recomputed 723 face normals
  by averaging face vertex normals.

MINMAX - Data range:

   Minimum   Average   Maximum  Range

X  -18.799999 7.515299 38.396099 57.196098
Y  -74.000000 -39.049202 0.000000 74.000000
Z  -0.000000 17.622810 22.799999 22.799999

CrystalSpace IVCON Import/Export Log

Input file: convtemp.3ds
Output file: {none}
DATA_REPORT - The input file contains:

  Bad data items             0
  Text lines                 0
  Colors                     0
  Comments                   0
  Duplicate points           0
  Faces                      2672
  Groups                     0
  Vertices per face, maximum 3
  Line items                 0
  Points                     1418
  Objects                    0

SET_VERTEX_NORMAL: Recomputed 8016 face vertex normals.

AVE_FACE_NORMAL: Recomputed 2672 face normals
  by averaging face vertex normals.

MINMAX - Data range:

   Minimum   Average   Maximum  Range

X  -4.728093 0.696247 4.771907 9.500000
Y  -4.791592 -0.035084 4.708411 9.500003
Z  0.206267 10.056189 16.777769 16.571502

CrystalSpace IVCON Import/Export Log

Input file: convtemp.3ds
Output file: {none}
DATA_REPORT - The input file contains:

  Bad data items             0
  Text lines                 0
  Colors                     0
  Comments                   0
  Duplicate points           0
  Faces                      320
  Groups                     0
  Vertices per face, maximum 3
  Line items                 0
  Points                     176
  Objects                    0

SET_VERTEX_NORMAL: Recomputed 960 face vertex normals.

AVE_FACE_NORMAL: Recomputed 320 face normals
  by averaging face vertex normals.

MINMAX - Data range:

   Minimum   Average   Maximum  Range

X  -3.157044 0.356710 3.710357 6.867401
Y  -2.346104 1.261024 3.895278 6.241381
Z  0.347031 1.322281 2.300923 1.953892

CrystalSpace IVCON Import/Export Log

Input file: convtemp.3ds
Output file: {none}
DATA_REPORT - The input file contains:

  Bad data items             0
  Text lines                 0
  Colors                     0
  Comments                   0
  Duplicate points           0
  Faces                      2120
  Groups                     0
  Vertices per face, maximum 3
  Line items                 0
  Points                     1080
  Objects                    0

SET_VERTEX_NORMAL: Recomputed 6360 face vertex normals.

AVE_FACE_NORMAL: Recomputed 2120 face normals
  by averaging face vertex normals.

MINMAX - Data range:

   Minimum   Average   Maximum  Range

X  -9.294492 -0.258839 10.901754 20.196246
Y  -4.369236 0.248494 2.566483 6.935719
Z  0.019493 1.669340 3.260172 3.240678

CrystalSpace IVCON Import/Export Log

Input file: convtemp.3ds
Output file: {none}
DATA_REPORT - The input file contains:

  Bad data items             0
  Text lines                 0
  Colors                     0
  Comments                   0
  Duplicate points           0
  Faces                      12
  Groups                     0
  Vertices per face, maximum 3
  Line items                 0
  Points                     24
  Objects                    0

SET_VERTEX_NORMAL: Recomputed 36 face vertex normals.

AVE_FACE_NORMAL: Recomputed 12 face normals
  by averaging face vertex normals.

MINMAX - Data range:

   Minimum   Average   Maximum  Range

X  -0.499000 0.001000 0.501000 1.000000
Y  -0.499000 0.001000 0.501000 1.000000
Z  0.021492 0.521492 1.021492 1.000000

CrystalSpace IVCON Import/Export Log

Input file: convtemp.3DS
Output file: {none}
DATA_REPORT - The input file contains:

  Bad data items             0
  Text lines                 0
  Colors                     0
  Comments                   0
  Duplicate points           0
  Faces                      6456
  Groups                     0
  Vertices per face, maximum 3
  Line items                 0
  Points                     3264
  Objects                    0

SET_VERTEX_NORMAL: Recomputed 19368 face vertex normals.

AVE_FACE_NORMAL: Recomputed 6456 face normals
  by averaging face vertex normals.

MINMAX - Data range:

   Minimum   Average   Maximum  Range

X  -230.727921 -11.131607 199.933792 430.661713
Y  -252.825745 1.230821 237.132523 489.958267
Z  -485.068512 -88.905571 125.848976 610.917488

CrystalSpace IVCON Import/Export Log

Input file: convtemp.3ds
Output file: {none}
DATA_REPORT - The input file contains:

  Bad data items             0
  Text lines                 0
  Colors                     0
  Comments                   0
  Duplicate points           0
  Faces                      1087
  Groups                     0
  Vertices per face, maximum 3
  Line items                 0
  Points                     596
  Objects                    0

SET_VERTEX_NORMAL: Recomputed 3261 face vertex normals.

AVE_FACE_NORMAL: Recomputed 1087 face normals
  by averaging face vertex normals.

MINMAX - Data range:

   Minimum   Average   Maximum  Range

X  -7.911269 0.037459 7.948729 15.859998
Y  -11.353171 -3.763129 7.590044 18.943215
Z  0.352159 8.007787 19.593138 19.240979

CrystalSpace IVCON Import/Export Log

Input file: convtemp.3ds
Output file: {none}
DATA_REPORT - The input file contains:

  Bad data items             0
  Text lines                 0
  Colors                     0
  Comments                   0
  Duplicate points           0
  Faces                      723
  Groups                     0
  Vertices per face, maximum 3
  Line items                 0
  Points                     385
  Objects                    0

SET_VERTEX_NORMAL: Recomputed 2169 face vertex normals.

AVE_FACE_NORMAL: Recomputed 723 face normals
  by averaging face vertex normals.

MINMAX - Data range:

   Minimum   Average   Maximum  Range

X  -18.799999 7.515299 38.396099 57.196098
Y  -74.000000 -39.049202 0.000000 74.000000
Z  -0.000000 17.622810 22.799999 22.799999

CrystalSpace IVCON Import/Export Log

Input file: convtemp.3ds
Output file: {none}
DATA_REPORT - The input file contains:

  Bad data items             0
  Text lines                 0
  Colors                     0
  Comments                   0
  Duplicate points           0
  Faces                      2672
  Groups                     0
  Vertices per face, maximum 3
  Line items                 0
  Points                     1418
  Objects                    0

SET_VERTEX_NORMAL: Recomputed 8016 face vertex normals.

AVE_FACE_NORMAL: Recomputed 2672 face normals
  by averaging face vertex normals.

MINMAX - Data range:

   Minimum   Average   Maximum  Range

X  -4.728093 0.696247 4.771907 9.500000
Y  -4.791592 -0.035084 4.708411 9.500003
Z  0.206267 10.056189 16.777769 16.571502

CrystalSpace IVCON Import/Export Log

Input file: convtemp.3ds
Output file: {none}
DATA_REPORT - The input file contains:

  Bad data items             0
  Text lines                 0
  Colors                     0
  Comments                   0
  Duplicate points           0
  Faces                      320
  Groups                     0
  Vertices per face, maximum 3
  Line items                 0
  Points                     176
  Objects                    0

SET_VERTEX_NORMAL: Recomputed 960 face vertex normals.

AVE_FACE_NORMAL: Recomputed 320 face normals
  by averaging face vertex normals.

MINMAX - Data range:

   Minimum   Average   Maximum  Range

X  -3.157044 0.356710 3.710357 6.867401
Y  -2.346104 1.261024 3.895278 6.241381
Z  0.347031 1.322281 2.300923 1.953892

CrystalSpace IVCON Import/Export Log

Input file: convtemp.3ds
Output file: {none}
DATA_REPORT - The input file contains:

  Bad data items             0
  Text lines                 0
  Colors                     0
  Comments                   0
  Duplicate points           0
  Faces                      2120
  Groups                     0
  Vertices per face, maximum 3
  Line items                 0
  Points                     1080
  Objects                    0

SET_VERTEX_NORMAL: Recomputed 6360 face vertex normals.

AVE_FACE_NORMAL: Recomputed 2120 face normals
  by averaging face vertex normals.

MINMAX - Data range:

   Minimum   Average   Maximum  Range

X  -9.294492 -0.258839 10.901754 20.196246
Y  -4.369236 0.248494 2.566483 6.935719
Z  0.019493 1.669340 3.260172 3.240678

CrystalSpace IVCON Import/Export Log

Input file: convtemp.3ds
Output file: {none}
DATA_REPORT - The input file contains:

  Bad data items             0
  Text lines                 0
  Colors                     0
  Comments                   0
  Duplicate points           0
  Faces                      12
  Groups                     0
  Vertices per face, maximum 3
  Line items                 0
  Points                     24
  Objects                    0

SET_VERTEX_NORMAL: Recomputed 36 face vertex normals.

AVE_FACE_NORMAL: Recomputed 12 face normals
  by averaging face vertex normals.

MINMAX - Data range:

   Minimum   Average   Maximum  Range

X  -0.499000 0.001000 0.501000 1.000000
Y  -0.499000 0.001000 0.501000 1.000000
Z  0.021492 0.521492 1.021492 1.000000

CrystalSpace IVCON Import/Export Log

Input file: convtemp.3DS
Output file: {none}
DATA_REPORT - The input file contains:

  Bad data items             0
  Text lines                 0
  Colors                     0
  Comments                   0
  Duplicate points           0
  Faces                      6456
  Groups                     0
  Vertices per face, maximum 3
  Line items                 0
  Points                     3264
  Objects                    0

SET_VERTEX_NORMAL: Recomputed 19368 face vertex normals.

AVE_FACE_NORMAL: Recomputed 6456 face normals
  by averaging face vertex normals.

MINMAX - Data range:

   Minimum   Average   Maximum  Range

X  -230.727921 -11.131607 199.933792 430.661713
Y  -252.825745 1.230821 237.132523 489.958267
Z  -485.068512 -88.905571 125.848976 610.917488

CrystalSpace IVCON Import/Export Log

Input file: convtemp.3ds
Output file: {none}
DATA_REPORT - The input file contains:

  Bad data items             0
  Text lines                 0
  Colors                     0
  Comments                   0
  Duplicate points           0
  Faces                      1087
  Groups                     0
  Vertices per face, maximum 3
  Line items                 0
  Points                     596
  Objects                    0

SET_VERTEX_NORMAL: Recomputed 3261 face vertex normals.

AVE_FACE_NORMAL: Recomputed 1087 face normals
  by averaging face vertex normals.

MINMAX - Data range:

   Minimum   Average   Maximum  Range

X  -7.911269 0.037459 7.948729 15.859998
Y  -11.353171 -3.763129 7.590044 18.943215
Z  0.352159 8.007787 19.593138 19.240979

CrystalSpace IVCON Import/Export Log

Input file: convtemp.3ds
Output file: {none}
DATA_REPORT - The input file contains:

  Bad data items             0
  Text lines                 0
  Colors                     0
  Comments                   0
  Duplicate points           0
  Faces                      723
  Groups                     0
  Vertices per face, maximum 3
  Line items                 0
  Points                     385
  Objects                    0

SET_VERTEX_NORMAL: Recomputed 2169 face vertex normals.

AVE_FACE_NORMAL: Recomputed 723 face normals
  by averaging face vertex normals.

MINMAX - Data range:

   Minimum   Average   Maximum  Range

X  -18.799999 7.515299 38.396099 57.196098
Y  -74.000000 -39.049202 0.000000 74.000000
Z  -0.000000 17.622810 22.799999 22.799999

CrystalSpace IVCON Import/Export Log

Input file: convtemp.3ds
Output file: {none}
DATA_REPORT - The input file contains:

  Bad data items             0
  Text lines                 0
  Colors                     0
  Comments                   0
  Duplicate points           0
  Faces                      2672
  Groups                     0
  Vertices per face, maximum 3
  Line items                 0
  Points                     1418
  Objects                    0

SET_VERTEX_NORMAL: Recomputed 8016 face vertex normals.

AVE_FACE_NORMAL: Recomputed 2672 face normals
  by averaging face vertex normals.

MINMAX - Data range:

   Minimum   Average   Maximum  Range

X  -4.728093 0.696247 4.771907 9.500000
Y  -4.791592 -0.035084 4.708411 9.500003
Z  0.206267 10.056189 16.777769 16.571502

CrystalSpace IVCON Import/Export Log

Input file: convtemp.3ds
Output file: {none}
DATA_REPORT - The input file contains:

  Bad data items             0
  Text lines                 0
  Colors                     0
  Comments                   0
  Duplicate points           0
  Faces                      320
  Groups                     0
  Vertices per face, maximum 3
  Line items                 0
  Points                     176
  Objects                    0

SET_VERTEX_NORMAL: Recomputed 960 face vertex normals.

AVE_FACE_NORMAL: Recomputed 320 face normals
  by averaging face vertex normals.

MINMAX - Data range:

   Minimum   Average   Maximum  Range

X  -3.157044 0.356710 3.710357 6.867401
Y  -2.346104 1.261024 3.895278 6.241381
Z  0.347031 1.322281 2.300923 1.953892

CrystalSpace IVCON Import/Export Log

Input file: convtemp.3ds
Output file: {none}
DATA_REPORT - The input file contains:

  Bad data items             0
  Text lines                 0
  Colors                     0
  Comments                   0
  Duplicate points           0
  Faces                      2120
  Groups                     0
  Vertices per face, maximum 3
  Line items                 0
  Points                     1080
  Objects                    0

SET_VERTEX_NORMAL: Recomputed 6360 face vertex normals.

AVE_FACE_NORMAL: Recomputed 2120 face normals
  by averaging face vertex normals.

MINMAX - Data range:

   Minimum   Average   Maximum  Range

X  -9.294492 -0.258839 10.901754 20.196246
Y  -4.369236 0.248494 2.566483 6.935719
Z  0.019493 1.669340 3.260172 3.240678

CrystalSpace IVCON Import/Export Log

Input file: convtemp.3ds
Output file: {none}
DATA_REPORT - The input file contains:

  Bad data items             0
  Text lines                 0
  Colors                     0
  Comments                   0
  Duplicate points           0
  Faces                      12
  Groups                     0
  Vertices per face, maximum 3
  Line items                 0
  Points                     24
  Objects                    0

SET_VERTEX_NORMAL: Recomputed 36 face vertex normals.

AVE_FACE_NORMAL: Recomputed 12 face normals
  by averaging face vertex normals.

MINMAX - Data range:

   Minimum   Average   Maximum  Range

X  -0.499000 0.001000 0.501000 1.000000
Y  -0.499000 0.001000 0.501000 1.000000
Z  0.021492 0.521492 1.021492 1.000000

CrystalSpace IVCON Import/Export Log

Input file: convtemp.3DS
Output file: {none}
DATA_REPORT - The input file contains:

  Bad data items             0
  Text lines                 0
  Colors                     0
  Comments                   0
  Duplicate points           0
  Faces                      6456
  Groups                     0
  Vertices per face, maximum 3
  Line items                 0
  Points                     3264
  Objects                    0

SET_VERTEX_NORMAL: Recomputed 19368 face vertex normals.

AVE_FACE_NORMAL: Recomputed 6456 face normals
  by averaging face vertex normals.

MINMAX - Data range:

   Minimum   Average   Maximum  Range

X  -230.727921 -11.131607 199.933792 430.661713
Y  -252.825745 1.230821 237.132523 489.958267
Z  -485.068512 -88.905571 125.848976 610.917488

CrystalSpace IVCON Import/Export Log

Input file: convtemp.3ds
Output file: {none}
DATA_REPORT - The input file contains:

  Bad data items             0
  Text lines                 0
  Colors                     0
  Comments                   0
  Duplicate points           0
  Faces                      1087
  Groups                     0
  Vertices per face, maximum 3
  Line items                 0
  Points                     596
  Objects                    0

SET_VERTEX_NORMAL: Recomputed 3261 face vertex normals.

AVE_FACE_NORMAL: Recomputed 1087 face normals
  by averaging face vertex normals.

MINMAX - Data range:

   Minimum   Average   Maximum  Range

X  -7.911269 0.037459 7.948729 15.859998
Y  -11.353171 -3.763129 7.590044 18.943215
Z  0.352159 8.007787 19.593138 19.240979

CrystalSpace IVCON Import/Export Log

Input file: convtemp.3ds
Output file: {none}
DATA_REPORT - The input file contains:

  Bad data items             0
  Text lines                 0
  Colors                     0
  Comments                   0
  Duplicate points           0
  Faces                      723
  Groups                     0
  Vertices per face, maximum 3
  Line items                 0
  Points                     385
  Objects                    0

SET_VERTEX_NORMAL: Recomputed 2169 face vertex normals.

AVE_FACE_NORMAL: Recomputed 723 face normals
  by averaging face vertex normals.

MINMAX - Data range:

   Minimum   Average   Maximum  Range

X  -18.799999 7.515299 38.396099 57.196098
Y  -74.000000 -39.049202 0.000000 74.000000
Z  -0.000000 17.622810 22.799999 22.799999

CrystalSpace IVCON Import/Export Log

Input file: convtemp.3ds
Output file: {none}
DATA_REPORT - The input file contains:

  Bad data items             0
  Text lines                 0
  Colors                     0
  Comments                   0
  Duplicate points           0
  Faces                      2672
  Groups                     0
  Vertices per face, maximum 3
  Line items                 0
  Points                     1418
  Objects                    0

SET_VERTEX_NORMAL: Recomputed 8016 face vertex normals.

AVE_FACE_NORMAL: Recomputed 2672 face normals
  by averaging face vertex normals.

MINMAX - Data range:

   Minimum   Average   Maximum  Range

X  -4.728093 0.696247 4.771907 9.500000
Y  -4.791592 -0.035084 4.708411 9.500003
Z  0.206267 10.056189 16.777769 16.571502

CrystalSpace IVCON Import/Export Log

Input file: convtemp.3ds
Output file: {none}
DATA_REPORT - The input file contains:

  Bad data items             0
  Text lines                 0
  Colors                     0
  Comments                   0
  Duplicate points           0
  Faces                      320
  Groups                     0
  Vertices per face, maximum 3
  Line items                 0
  Points                     176
  Objects                    0

SET_VERTEX_NORMAL: Recomputed 960 face vertex normals.

AVE_FACE_NORMAL: Recomputed 320 face normals
  by averaging face vertex normals.

MINMAX - Data range:

   Minimum   Average   Maximum  Range

X  -3.157044 0.356710 3.710357 6.867401
Y  -2.346104 1.261024 3.895278 6.241381
Z  0.347031 1.322281 2.300923 1.953892

CrystalSpace IVCON Import/Export Log

Input file: convtemp.3ds
Output file: {none}
DATA_REPORT - The input file contains:

  Bad data items             0
  Text lines                 0
  Colors                     0
  Comments                   0
  Duplicate points           0
  Faces                      2120
  Groups                     0
  Vertices per face, maximum 3
  Line items                 0
  Points                     1080
  Objects                    0

SET_VERTEX_NORMAL: Recomputed 6360 face vertex normals.

AVE_FACE_NORMAL: Recomputed 2120 face normals
  by averaging face vertex normals.

MINMAX - Data range:

   Minimum   Average   Maximum  Range

X  -9.294492 -0.258839 10.901754 20.196246
Y  -4.369236 0.248494 2.566483 6.935719
Z  0.019493 1.669340 3.260172 3.240678

CrystalSpace IVCON Import/Export Log

Input file: convtemp.3ds
Output file: {none}
DATA_REPORT - The input file contains:

  Bad data items             0
  Text lines                 0
  Colors                     0
  Comments                   0
  Duplicate points           0
  Faces                      12
  Groups                     0
  Vertices per face, maximum 3
  Line items                 0
  Points                     24
  Objects                    0

SET_VERTEX_NORMAL: Recomputed 36 face vertex normals.

AVE_FACE_NORMAL: Recomputed 12 face normals
  by averaging face vertex normals.

MINMAX - Data range:

   Minimum   Average   Maximum  Range

X  -0.499000 0.001000 0.501000 1.000000
Y  -0.499000 0.001000 0.501000 1.000000
Z  0.021492 0.521492 1.021492 1.000000

CrystalSpace IVCON Import/Export Log

Input file: convtemp.3DS
Output file: {none}
DATA_REPORT - The input file contains:

  Bad data items             0
  Text lines                 0
  Colors                     0
  Comments                   0
  Duplicate points           0
  Faces                      6456
  Groups                     0
  Vertices per face, maximum 3
  Line items                 0
  Points                     3264
  Objects                    0

SET_VERTEX_NORMAL: Recomputed 19368 face vertex normals.

AVE_FACE_NORMAL: Recomputed 6456 face normals
  by averaging face vertex normals.

MINMAX - Data range:

   Minimum   Average   Maximum  Range

X  -230.727921 -11.131607 199.933792 430.661713
Y  -252.825745 1.230821 237.132523 489.958267
Z  -485.068512 -88.905571 125.848976 610.917488

CrystalSpace IVCON Import/Export Log

Input file: convtemp.3ds
Output file: {none}
DATA_REPORT - The input file contains:

  Bad data items             0
  Text lines                 0
  Colors                     0
  Comments                   0
  Duplicate points           0
  Faces                      1087
  Groups                     0
  Vertices per face, maximum 3
  Line items                 0
  Points                     596
  Objects                    0

SET_VERTEX_NORMAL: Recomputed 3261 face vertex normals.

AVE_FACE_NORMAL: Recomputed 1087 face normals
  by averaging face vertex normals.

MINMAX - Data range:

   Minimum   Average   Maximum  Range

X  -7.911269 0.037459 7.948729 15.859998
Y  -11.353171 -3.763129 7.590044 18.943215
Z  0.352159 8.007787 19.593138 19.240979

CrystalSpace IVCON Import/Export Log

Input file: convtemp.3ds
Output file: {none}
DATA_REPORT - The input file contains:

  Bad data items             0
  Text lines                 0
  Colors                     0
  Comments                   0
  Duplicate points           0
  Faces                      723
  Groups                     0
  Vertices per face, maximum 3
  Line items                 0
  Points                     385
  Objects                    0

SET_VERTEX_NORMAL: Recomputed 2169 face vertex normals.

AVE_FACE_NORMAL: Recomputed 723 face normals
  by averaging face vertex normals.

MINMAX - Data range:

   Minimum   Average   Maximum  Range

X  -18.799999 7.515299 38.396099 57.196098
Y  -74.000000 -39.049202 0.000000 74.000000
Z  -0.000000 17.622810 22.799999 22.799999

CrystalSpace IVCON Import/Export Log

Input file: convtemp.3ds
Output file: {none}
DATA_REPORT - The input file contains:

  Bad data items             0
  Text lines                 0
  Colors                     0
  Comments                   0
  Duplicate points           0
  Faces                      2672
  Groups                     0
  Vertices per face, maximum 3
  Line items                 0
  Points                     1418
  Objects                    0

SET_VERTEX_NORMAL: Recomputed 8016 face vertex normals.

AVE_FACE_NORMAL: Recomputed 2672 face normals
  by averaging face vertex normals.

MINMAX - Data range:

   Minimum   Average   Maximum  Range

X  -4.728093 0.696247 4.771907 9.500000
Y  -4.791592 -0.035084 4.708411 9.500003
Z  0.206267 10.056189 16.777769 16.571502

CrystalSpace IVCON Import/Export Log

Input file: convtemp.3ds
Output file: {none}
DATA_REPORT - The input file contains:

  Bad data items             0
  Text lines                 0
  Colors                     0
  Comments                   0
  Duplicate points           0
  Faces                      320
  Groups                     0
  Vertices per face, maximum 3
  Line items                 0
  Points                     176
  Objects                    0

SET_VERTEX_NORMAL: Recomputed 960 face vertex normals.

AVE_FACE_NORMAL: Recomputed 320 face normals
  by averaging face vertex normals.

MINMAX - Data range:

   Minimum   Average   Maximum  Range

X  -3.157044 0.356710 3.710357 6.867401
Y  -2.346104 1.261024 3.895278 6.241381
Z  0.347031 1.322281 2.300923 1.953892

CrystalSpace IVCON Import/Export Log

Input file: convtemp.3ds
Output file: {none}
DATA_REPORT - The input file contains:

  Bad data items             0
  Text lines                 0
  Colors                     0
  Comments                   0
  Duplicate points           0
  Faces                      2120
  Groups                     0
  Vertices per face, maximum 3
  Line items                 0
  Points                     1080
  Objects                    0

SET_VERTEX_NORMAL: Recomputed 6360 face vertex normals.

AVE_FACE_NORMAL: Recomputed 2120 face normals
  by averaging face vertex normals.

MINMAX - Data range:

   Minimum   Average   Maximum  Range

X  -9.294492 -0.258839 10.901754 20.196246
Y  -4.369236 0.248494 2.566483 6.935719
Z  0.019493 1.669340 3.260172 3.240678

CrystalSpace IVCON Import/Export Log

Input file: convtemp.3ds
Output file: {none}
DATA_REPORT - The input file contains:

  Bad data items             0
  Text lines                 0
  Colors                     0
  Comments                   0
  Duplicate points           0
  Faces                      12
  Groups                     0
  Vertices per face, maximum 3
  Line items                 0
  Points                     24
  Objects                    0

SET_VERTEX_NORMAL: Recomputed 36 face vertex normals.

AVE_FACE_NORMAL: Recomputed 12 face normals
  by averaging face vertex normals.

MINMAX - Data range:

   Minimum   Average   Maximum  Range

X  -0.499000 0.001000 0.501000 1.000000
Y  -0.499000 0.001000 0.501000 1.000000
Z  0.021492 0.521492 1.021492 1.000000

CrystalSpace IVCON Import/Export Log

Input file: convtemp.3DS
Output file: {none}
DATA_REPORT - The input file contains:

  Bad data items             0
  Text lines                 0
  Colors                     0
  Comments                   0
  Duplicate points           0
  Faces                      6456
  Groups                     0
  Vertices per face, maximum 3
  Line items                 0
  Points                     3264
  Objects                    0

SET_VERTEX_NORMAL: Recomputed 19368 face vertex normals.

AVE_FACE_NORMAL: Recomputed 6456 face normals
  by averaging face vertex normals.

MINMAX - Data range:

   Minimum   Average   Maximum  Range

X  -230.727921 -11.131607 199.933792 430.661713
Y  -252.825745 1.230821 237.132523 489.958267
Z  -485.068512 -88.905571 125.848976 610.917488

CrystalSpace IVCON Import/Export Log

Input file: convtemp.3ds
Output file: {none}
DATA_REPORT - The input file contains:

  Bad data items             0
  Text lines                 0
  Colors                     0
  Comments                   0
  Duplicate points           0
  Faces                      1087
  Groups                     0
  Vertices per face, maximum 3
  Line items                 0
  Points                     596
  Objects                    0

SET_VERTEX_NORMAL: Recomputed 3261 face vertex normals.

AVE_FACE_NORMAL: Recomputed 1087 face normals
  by averaging face vertex normals.

MINMAX - Data range:

   Minimum   Average   Maximum  Range

X  -7.911269 0.037459 7.948729 15.859998
Y  -11.353171 -3.763129 7.590044 18.943215
Z  0.352159 8.007787 19.593138 19.240979

CrystalSpace IVCON Import/Export Log

Input file: convtemp.3ds
Output file: {none}
DATA_REPORT - The input file contains:

  Bad data items             0
  Text lines                 0
  Colors                     0
  Comments                   0
  Duplicate points           0
  Faces                      723
  Groups                     0
  Vertices per face, maximum 3
  Line items                 0
  Points                     385
  Objects                    0

SET_VERTEX_NORMAL: Recomputed 2169 face vertex normals.

AVE_FACE_NORMAL: Recomputed 723 face normals
  by averaging face vertex normals.

MINMAX - Data range:

   Minimum   Average   Maximum  Range

X  -18.799999 7.515299 38.396099 57.196098
Y  -74.000000 -39.049202 0.000000 74.000000
Z  -0.000000 17.622810 22.799999 22.799999

CrystalSpace IVCON Import/Export Log

Input file: convtemp.3ds
Output file: {none}
DATA_REPORT - The input file contains:

  Bad data items             0
  Text lines                 0
  Colors                     0
  Comments                   0
  Duplicate points           0
  Faces                      2672
  Groups                     0
  Vertices per face, maximum 3
  Line items                 0
  Points                     1418
  Objects                    0

SET_VERTEX_NORMAL: Recomputed 8016 face vertex normals.

AVE_FACE_NORMAL: Recomputed 2672 face normals
  by averaging face vertex normals.

MINMAX - Data range:

   Minimum   Average   Maximum  Range

X  -4.728093 0.696247 4.771907 9.500000
Y  -4.791592 -0.035084 4.708411 9.500003
Z  0.206267 10.056189 16.777769 16.571502

CrystalSpace IVCON Import/Export Log

Input file: convtemp.3ds
Output file: {none}
DATA_REPORT - The input file contains:

  Bad data items             0
  Text lines                 0
  Colors                     0
  Comments                   0
  Duplicate points           0
  Faces                      320
  Groups                     0
  Vertices per face, maximum 3
  Line items                 0
  Points                     176
  Objects                    0

SET_VERTEX_NORMAL: Recomputed 960 face vertex normals.

AVE_FACE_NORMAL: Recomputed 320 face normals
  by averaging face vertex normals.

MINMAX - Data range:

   Minimum   Average   Maximum  Range

X  -3.157044 0.356710 3.710357 6.867401
Y  -2.346104 1.261024 3.895278 6.241381
Z  0.347031 1.322281 2.300923 1.953892

CrystalSpace IVCON Import/Export Log

Input file: convtemp.3ds
Output file: {none}
DATA_REPORT - The input file contains:

  Bad data items             0
  Text lines                 0
  Colors                     0
  Comments                   0
  Duplicate points           0
  Faces                      2120
  Groups                     0
  Vertices per face, maximum 3
  Line items                 0
  Points                     1080
  Objects                    0

SET_VERTEX_NORMAL: Recomputed 6360 face vertex normals.

AVE_FACE_NORMAL: Recomputed 2120 face normals
  by averaging face vertex normals.

MINMAX - Data range:

   Minimum   Average   Maximum  Range

X  -9.294492 -0.258839 10.901754 20.196246
Y  -4.369236 0.248494 2.566483 6.935719
Z  0.019493 1.669340 3.260172 3.240678

CrystalSpace IVCON Import/Export Log

Input file: convtemp.3ds
Output file: {none}
DATA_REPORT - The input file contains:

  Bad data items             0
  Text lines                 0
  Colors                     0
  Comments                   0
  Duplicate points           0
  Faces                      12
  Groups                     0
  Vertices per face, maximum 3
  Line items                 0
  Points                     24
  Objects                    0

SET_VERTEX_NORMAL: Recomputed 36 face vertex normals.

AVE_FACE_NORMAL: Recomputed 12 face normals
  by averaging face vertex normals.

MINMAX - Data range:

   Minimum   Average   Maximum  Range

X  -0.499000 0.001000 0.501000 1.000000
Y  -0.499000 0.001000 0.501000 1.000000
Z  0.021492 0.521492 1.021492 1.000000

CrystalSpace IVCON Import/Export Log

Input file: convtemp.3DS
Output file: {none}
DATA_REPORT - The input file contains:

  Bad data items             0
  Text lines                 0
  Colors                     0
  Comments                   0
  Duplicate points           0
  Faces                      6456
  Groups                     0
  Vertices per face, maximum 3
  Line items                 0
  Points                     3264
  Objects                    0

SET_VERTEX_NORMAL: Recomputed 19368 face vertex normals.

AVE_FACE_NORMAL: Recomputed 6456 face normals
  by averaging face vertex normals.

MINMAX - Data range:

   Minimum   Average   Maximum  Range

X  -230.727921 -11.131607 199.933792 430.661713
Y  -252.825745 1.230821 237.132523 489.958267
Z  -485.068512 -88.905571 125.848976 610.917488

CrystalSpace IVCON Import/Export Log

Input file: convtemp.3ds
Output file: {none}
DATA_REPORT - The input file contains:

  Bad data items             0
  Text lines                 0
  Colors                     0
  Comments                   0
  Duplicate points           0
  Faces                      1087
  Groups                     0
  Vertices per face, maximum 3
  Line items                 0
  Points                     596
  Objects                    0

SET_VERTEX_NORMAL: Recomputed 3261 face vertex normals.

AVE_FACE_NORMAL: Recomputed 1087 face normals
  by averaging face vertex normals.

MINMAX - Data range:

   Minimum   Average   Maximum  Range

X  -7.911269 0.037459 7.948729 15.859998
Y  -11.353171 -3.763129 7.590044 18.943215
Z  0.352159 8.007787 19.593138 19.240979

CrystalSpace IVCON Import/Export Log

Input file: convtemp.3ds
Output file: {none}
DATA_REPORT - The input file contains:

  Bad data items             0
  Text lines                 0
  Colors                     0
  Comments                   0
  Duplicate points           0
  Faces                      723
  Groups                     0
  Vertices per face, maximum 3
  Line items                 0
  Points                     385
  Objects                    0

SET_VERTEX_NORMAL: Recomputed 2169 face vertex normals.

AVE_FACE_NORMAL: Recomputed 723 face normals
  by averaging face vertex normals.

MINMAX - Data range:

   Minimum   Average   Maximum  Range

X  -18.799999 7.515299 38.396099 57.196098
Y  -74.000000 -39.049202 0.000000 74.000000
Z  -0.000000 17.622810 22.799999 22.799999

CrystalSpace IVCON Import/Export Log

Input file: convtemp.3ds
Output file: {none}
DATA_REPORT - The input file contains:

  Bad data items             0
  Text lines                 0
  Colors                     0
  Comments                   0
  Duplicate points           0
  Faces                      2672
  Groups                     0
  Vertices per face, maximum 3
  Line items                 0
  Points                     1418
  Objects                    0

SET_VERTEX_NORMAL: Recomputed 8016 face vertex normals.

AVE_FACE_NORMAL: Recomputed 2672 face normals
  by averaging face vertex normals.

MINMAX - Data range:

   Minimum   Average   Maximum  Range

X  -4.728093 0.696247 4.771907 9.500000
Y  -4.791592 -0.035084 4.708411 9.500003
Z  0.206267 10.056189 16.777769 16.571502

CrystalSpace IVCON Import/Export Log

Input file: convtemp.3ds
Output file: {none}
DATA_REPORT - The input file contains:

  Bad data items             0
  Text lines                 0
  Colors                     0
  Comments                   0
  Duplicate points           0
  Faces                      320
  Groups                     0
  Vertices per face, maximum 3
  Line items                 0
  Points                     176
  Objects                    0

SET_VERTEX_NORMAL: Recomputed 960 face vertex normals.

AVE_FACE_NORMAL: Recomputed 320 face normals
  by averaging face vertex normals.

MINMAX - Data range:

   Minimum   Average   Maximum  Range

X  -3.157044 0.356710 3.710357 6.867401
Y  -2.346104 1.261024 3.895278 6.241381
Z  0.347031 1.322281 2.300923 1.953892

CrystalSpace IVCON Import/Export Log

Input file: convtemp.3ds
Output file: {none}
DATA_REPORT - The input file contains:

  Bad data items             0
  Text lines                 0
  Colors                     0
  Comments                   0
  Duplicate points           0
  Faces                      2120
  Groups                     0
  Vertices per face, maximum 3
  Line items                 0
  Points                     1080
  Objects                    0

SET_VERTEX_NORMAL: Recomputed 6360 face vertex normals.

AVE_FACE_NORMAL: Recomputed 2120 face normals
  by averaging face vertex normals.

MINMAX - Data range:

   Minimum   Average   Maximum  Range

X  -9.294492 -0.258839 10.901754 20.196246
Y  -4.369236 0.248494 2.566483 6.935719
Z  0.019493 1.669340 3.260172 3.240678

CrystalSpace IVCON Import/Export Log

Input file: convtemp.3ds
Output file: {none}
DATA_REPORT - The input file contains:

  Bad data items             0
  Text lines                 0
  Colors                     0
  Comments                   0
  Duplicate points           0
  Faces                      12
  Groups                     0
  Vertices per face, maximum 3
  Line items                 0
  Points                     24
  Objects                    0

SET_VERTEX_NORMAL: Recomputed 36 face vertex normals.

AVE_FACE_NORMAL: Recomputed 12 face normals
  by averaging face vertex normals.

MINMAX - Data range:

   Minimum   Average   Maximum  Range

X  -0.499000 0.001000 0.501000 1.000000
Y  -0.499000 0.001000 0.501000 1.000000
Z  0.021492 0.521492 1.021492 1.000000

CrystalSpace IVCON Import/Export Log

Input file: convtemp.3DS
Output file: {none}
DATA_REPORT - The input file contains:

  Bad data items             0
  Text lines                 0
  Colors                     0
  Comments                   0
  Duplicate points           0
  Faces                      6456
  Groups                     0
  Vertices per face, maximum 3
  Line items                 0
  Points                     3264
  Objects                    0

SET_VERTEX_NORMAL: Recomputed 19368 face vertex normals.

AVE_FACE_NORMAL: Recomputed 6456 face normals
  by averaging face vertex normals.

MINMAX - Data range:

   Minimum   Average   Maximum  Range

X  -230.727921 -11.131607 199.933792 430.661713
Y  -252.825745 1.230821 237.132523 489.958267
Z  -485.068512 -88.905571 125.848976 610.917488

CrystalSpace IVCON Import/Export Log

Input file: convtemp.3ds
Output file: {none}
DATA_REPORT - The input file contains:

  Bad data items             0
  Text lines                 0
  Colors                     0
  Comments                   0
  Duplicate points           0
  Faces                      1087
  Groups                     0
  Vertices per face, maximum 3
  Line items                 0
  Points                     596
  Objects                    0

SET_VERTEX_NORMAL: Recomputed 3261 face vertex normals.

AVE_FACE_NORMAL: Recomputed 1087 face normals
  by averaging face vertex normals.

MINMAX - Data range:

   Minimum   Average   Maximum  Range

X  -7.911269 0.037459 7.948729 15.859998
Y  -11.353171 -3.763129 7.590044 18.943215
Z  0.352159 8.007787 19.593138 19.240979

CrystalSpace IVCON Import/Export Log

Input file: convtemp.3ds
Output file: {none}
DATA_REPORT - The input file contains:

  Bad data items             0
  Text lines                 0
  Colors                     0
  Comments                   0
  Duplicate points           0
  Faces                      723
  Groups                     0
  Vertices per face, maximum 3
  Line items                 0
  Points                     385
  Objects                    0

SET_VERTEX_NORMAL: Recomputed 2169 face vertex normals.

AVE_FACE_NORMAL: Recomputed 723 face normals
  by averaging face vertex normals.

MINMAX - Data range:

   Minimum   Average   Maximum  Range

X  -18.799999 7.515299 38.396099 57.196098
Y  -74.000000 -39.049202 0.000000 74.000000
Z  -0.000000 17.622810 22.799999 22.799999

CrystalSpace IVCON Import/Export Log

Input file: convtemp.3ds
Output file: {none}
DATA_REPORT - The input file contains:

  Bad data items             0
  Text lines                 0
  Colors                     0
  Comments                   0
  Duplicate points           0
  Faces                      2672
  Groups                     0
  Vertices per face, maximum 3
  Line items                 0
  Points                     1418
  Objects                    0

SET_VERTEX_NORMAL: Recomputed 8016 face vertex normals.

AVE_FACE_NORMAL: Recomputed 2672 face normals
  by averaging face vertex normals.

MINMAX - Data range:

   Minimum   Average   Maximum  Range

X  -4.728093 0.696247 4.771907 9.500000
Y  -4.791592 -0.035084 4.708411 9.500003
Z  0.206267 10.056189 16.777769 16.571502

CrystalSpace IVCON Import/Export Log

Input file: convtemp.3ds
Output file: {none}
DATA_REPORT - The input file contains:

  Bad data items             0
  Text lines                 0
  Colors                     0
  Comments                   0
  Duplicate points           0
  Faces                      320
  Groups                     0
  Vertices per face, maximum 3
  Line items                 0
  Points                     176
  Objects                    0

SET_VERTEX_NORMAL: Recomputed 960 face vertex normals.

AVE_FACE_NORMAL: Recomputed 320 face normals
  by averaging face vertex normals.

MINMAX - Data range:

   Minimum   Average   Maximum  Range

X  -3.157044 0.356710 3.710357 6.867401
Y  -2.346104 1.261024 3.895278 6.241381
Z  0.347031 1.322281 2.300923 1.953892

CrystalSpace IVCON Import/Export Log

Input file: convtemp.3ds
Output file: {none}
DATA_REPORT - The input file contains:

  Bad data items             0
  Text lines                 0
  Colors                     0
  Comments                   0
  Duplicate points           0
  Faces                      2120
  Groups                     0
  Vertices per face, maximum 3
  Line items                 0
  Points                     1080
  Objects                    0

SET_VERTEX_NORMAL: Recomputed 6360 face vertex normals.

AVE_FACE_NORMAL: Recomputed 2120 face normals
  by averaging face vertex normals.

MINMAX - Data range:

   Minimum   Average   Maximum  Range

X  -9.294492 -0.258839 10.901754 20.196246
Y  -4.369236 0.248494 2.566483 6.935719
Z  0.019493 1.669340 3.260172 3.240678

CrystalSpace IVCON Import/Export Log

Input file: convtemp.3ds
Output file: {none}
DATA_REPORT - The input file contains:

  Bad data items             0
  Text lines                 0
  Colors                     0
  Comments                   0
  Duplicate points           0
  Faces                      12
  Groups                     0
  Vertices per face, maximum 3
  Line items                 0
  Points                     24
  Objects                    0

SET_VERTEX_NORMAL: Recomputed 36 face vertex normals.

AVE_FACE_NORMAL: Recomputed 12 face normals
  by averaging face vertex normals.

MINMAX - Data range:

   Minimum   Average   Maximum  Range

X  -0.499000 0.001000 0.501000 1.000000
Y  -0.499000 0.001000 0.501000 1.000000
Z  0.021492 0.521492 1.021492 1.000000

CrystalSpace IVCON Import/Export Log

Input file: convtemp.3DS
Output file: {none}
DATA_REPORT - The input file contains:

  Bad data items             0
  Text lines                 0
  Colors                     0
  Comments                   0
  Duplicate points           0
  Faces                      6456
  Groups                     0
  Vertices per face, maximum 3
  Line items                 0
  Points                     3264
  Objects                    0

SET_VERTEX_NORMAL: Recomputed 19368 face vertex normals.

AVE_FACE_NORMAL: Recomputed 6456 face normals
  by averaging face vertex normals.

MINMAX - Data range:

   Minimum   Average   Maximum  Range

X  -230.727921 -11.131607 199.933792 430.661713
Y  -252.825745 1.230821 237.132523 489.958267
Z  -485.068512 -88.905571 125.848976 610.917488

CrystalSpace IVCON Import/Export Log

Input file: convtemp.3ds
Output file: {none}
DATA_REPORT - The input file contains:

  Bad data items             0
  Text lines                 0
  Colors                     0
  Comments                   0
  Duplicate points           0
  Faces                      1087
  Groups                     0
  Vertices per face, maximum 3
  Line items                 0
  Points                     596
  Objects                    0

SET_VERTEX_NORMAL: Recomputed 3261 face vertex normals.

AVE_FACE_NORMAL: Recomputed 1087 face normals
  by averaging face vertex normals.

MINMAX - Data range:

   Minimum   Average   Maximum  Range

X  -7.911269 0.037459 7.948729 15.859998
Y  -11.353171 -3.763129 7.590044 18.943215
Z  0.352159 8.007787 19.593138 19.240979

CrystalSpace IVCON Import/Export Log

Input file: convtemp.3ds
Output file: {none}
DATA_REPORT - The input file contains:

  Bad data items             0
  Text lines                 0
  Colors                     0
  Comments                   0
  Duplicate points           0
  Faces                      723
  Groups                     0
  Vertices per face, maximum 3
  Line items                 0
  Points                     385
  Objects                    0

SET_VERTEX_NORMAL: Recomputed 2169 face vertex normals.

AVE_FACE_NORMAL: Recomputed 723 face normals
  by averaging face vertex normals.

MINMAX - Data range:

   Minimum   Average   Maximum  Range

X  -18.799999 7.515299 38.396099 57.196098
Y  -74.000000 -39.049202 0.000000 74.000000
Z  -0.000000 17.622810 22.799999 22.799999

CrystalSpace IVCON Import/Export Log

Input file: convtemp.3ds
Output file: {none}
DATA_REPORT - The input file contains:

  Bad data items             0
  Text lines                 0
  Colors                     0
  Comments                   0
  Duplicate points           0
  Faces                      2672
  Groups                     0
  Vertices per face, maximum 3
  Line items                 0
  Points                     1418
  Objects                    0

SET_VERTEX_NORMAL: Recomputed 8016 face vertex normals.

AVE_FACE_NORMAL: Recomputed 2672 face normals
  by averaging face vertex normals.

MINMAX - Data range:

   Minimum   Average   Maximum  Range

X  -4.728093 0.696247 4.771907 9.500000
Y  -4.791592 -0.035084 4.708411 9.500003
Z  0.206267 10.056189 16.777769 16.571502

CrystalSpace IVCON Import/Export Log

Input file: convtemp.3ds
Output file: {none}
DATA_REPORT - The input file contains:

  Bad data items             0
  Text lines                 0
  Colors                     0
  Comments                   0
  Duplicate points           0
  Faces                      320
  Groups                     0
  Vertices per face, maximum 3
  Line items                 0
  Points                     176
  Objects                    0

SET_VERTEX_NORMAL: Recomputed 960 face vertex normals.

AVE_FACE_NORMAL: Recomputed 320 face normals
  by averaging face vertex normals.

MINMAX - Data range:

   Minimum   Average   Maximum  Range

X  -3.157044 0.356710 3.710357 6.867401
Y  -2.346104 1.261024 3.895278 6.241381
Z  0.347031 1.322281 2.300923 1.953892

CrystalSpace IVCON Import/Export Log

Input file: convtemp.3ds
Output file: {none}
DATA_REPORT - The input file contains:

  Bad data items             0
  Text lines                 0
  Colors                     0
  Comments                   0
  Duplicate points           0
  Faces                      2120
  Groups                     0
  Vertices per face, maximum 3
  Line items                 0
  Points                     1080
  Objects                    0

SET_VERTEX_NORMAL: Recomputed 6360 face vertex normals.

AVE_FACE_NORMAL: Recomputed 2120 face normals
  by averaging face vertex normals.

MINMAX - Data range:

   Minimum   Average   Maximum  Range

X  -9.294492 -0.258839 10.901754 20.196246
Y  -4.369236 0.248494 2.566483 6.935719
Z  0.019493 1.669340 3.260172 3.240678

CrystalSpace IVCON Import/Export Log

Input file: convtemp.3ds
Output file: {none}
DATA_REPORT - The input file contains:

  Bad data items             0
  Text lines                 0
  Colors                     0
  Comments                   0
  Duplicate points           0
  Faces                      12
  Groups                     0
  Vertices per face, maximum 3
  Line items                 0
  Points                     24
  Objects                    0

SET_VERTEX_NORMAL: Recomputed 36 face vertex normals.

AVE_FACE_NORMAL: Recomputed 12 face normals
  by averaging face vertex normals.

MINMAX - Data range:

   Minimum   Average   Maximum  Range

X  -0.499000 0.001000 0.501000 1.000000
Y  -0.499000 0.001000 0.501000 1.000000
Z  0.021492 0.521492 1.021492 1.000000

CrystalSpace IVCON Import/Export Log

Input file: convtemp.3DS
Output file: {none}
DATA_REPORT - The input file contains:

  Bad data items             0
  Text lines                 0
  Colors                     0
  Comments                   0
  Duplicate points           0
  Faces                      6456
  Groups                     0
  Vertices per face, maximum 3
  Line items                 0
  Points                     3264
  Objects                    0

SET_VERTEX_NORMAL: Recomputed 19368 face vertex normals.

AVE_FACE_NORMAL: Recomputed 6456 face normals
  by averaging face vertex normals.

MINMAX - Data range:

   Minimum   Average   Maximum  Range

X  -230.727921 -11.131607 199.933792 430.661713
Y  -252.825745 1.230821 237.132523 489.958267
Z  -485.068512 -88.905571 125.848976 610.917488

CrystalSpace IVCON Import/Export Log

Input file: convtemp.3ds
Output file: {none}
DATA_REPORT - The input file contains:

  Bad data items             0
  Text lines                 0
  Colors                     0
  Comments                   0
  Duplicate points           0
  Faces                      1087
  Groups                     0
  Vertices per face, maximum 3
  Line items                 0
  Points                     596
  Objects                    0

SET_VERTEX_NORMAL: Recomputed 3261 face vertex normals.

AVE_FACE_NORMAL: Recomputed 1087 face normals
  by averaging face vertex normals.

MINMAX - Data range:

   Minimum   Average   Maximum  Range

X  -7.911269 0.037459 7.948729 15.859998
Y  -11.353171 -3.763129 7.590044 18.943215
Z  0.352159 8.007787 19.593138 19.240979

CrystalSpace IVCON Import/Export Log

Input file: convtemp.3ds
Output file: {none}
DATA_REPORT - The input file contains:

  Bad data items             0
  Text lines                 0
  Colors                     0
  Comments                   0
  Duplicate points           0
  Faces                      723
  Groups                     0
  Vertices per face, maximum 3
  Line items                 0
  Points                     385
  Objects                    0

SET_VERTEX_NORMAL: Recomputed 2169 face vertex normals.

AVE_FACE_NORMAL: Recomputed 723 face normals
  by averaging face vertex normals.

MINMAX - Data range:

   Minimum   Average   Maximum  Range

X  -18.799999 7.515299 38.396099 57.196098
Y  -74.000000 -39.049202 0.000000 74.000000
Z  -0.000000 17.622810 22.799999 22.799999

CrystalSpace IVCON Import/Export Log

Input file: convtemp.3ds
Output file: {none}
DATA_REPORT - The input file contains:

  Bad data items             0
  Text lines                 0
  Colors                     0
  Comments                   0
  Duplicate points           0
  Faces                      2672
  Groups                     0
  Vertices per face, maximum 3
  Line items                 0
  Points                     1418
  Objects                    0

SET_VERTEX_NORMAL: Recomputed 8016 face vertex normals.

AVE_FACE_NORMAL: Recomputed 2672 face normals
  by averaging face vertex normals.

MINMAX - Data range:

   Minimum   Average   Maximum  Range

X  -4.728093 0.696247 4.771907 9.500000
Y  -4.791592 -0.035084 4.708411 9.500003
Z  0.206267 10.056189 16.777769 16.571502

CrystalSpace IVCON Import/Export Log

Input file: convtemp.3ds
Output file: {none}
DATA_REPORT - The input file contains:

  Bad data items             0
  Text lines                 0
  Colors                     0
  Comments                   0
  Duplicate points           0
  Faces                      320
  Groups                     0
  Vertices per face, maximum 3
  Line items                 0
  Points                     176
  Objects                    0

SET_VERTEX_NORMAL: Recomputed 960 face vertex normals.

AVE_FACE_NORMAL: Recomputed 320 face normals
  by averaging face vertex normals.

MINMAX - Data range:

   Minimum   Average   Maximum  Range

X  -3.157044 0.356710 3.710357 6.867401
Y  -2.346104 1.261024 3.895278 6.241381
Z  0.347031 1.322281 2.300923 1.953892

CrystalSpace IVCON Import/Export Log

Input file: convtemp.3ds
Output file: {none}
DATA_REPORT - The input file contains:

  Bad data items             0
  Text lines                 0
  Colors                     0
  Comments                   0
  Duplicate points           0
  Faces                      2120
  Groups                     0
  Vertices per face, maximum 3
  Line items                 0
  Points                     1080
  Objects                    0

SET_VERTEX_NORMAL: Recomputed 6360 face vertex normals.

AVE_FACE_NORMAL: Recomputed 2120 face normals
  by averaging face vertex normals.

MINMAX - Data range:

   Minimum   Average   Maximum  Range

X  -9.294492 -0.258839 10.901754 20.196246
Y  -4.369236 0.248494 2.566483 6.935719
Z  0.019493 1.669340 3.260172 3.240678

CrystalSpace IVCON Import/Export Log

Input file: convtemp.3ds
Output file: {none}
DATA_REPORT - The input file contains:

  Bad data items             0
  Text lines                 0
  Colors                     0
  Comments                   0
  Duplicate points           0
  Faces                      12
  Groups                     0
  Vertices per face, maximum 3
  Line items                 0
  Points                     24
  Objects                    0

SET_VERTEX_NORMAL: Recomputed 36 face vertex normals.

AVE_FACE_NORMAL: Recomputed 12 face normals
  by averaging face vertex normals.

MINMAX - Data range:

   Minimum   Average   Maximum  Range

X  -0.499000 0.001000 0.501000 1.000000
Y  -0.499000 0.001000 0.501000 1.000000
Z  0.021492 0.521492 1.021492 1.000000

CrystalSpace IVCON Import/Export Log

Input file: convtemp.3DS
Output file: {none}
DATA_REPORT - The input file contains:

  Bad data items             0
  Text lines                 0
  Colors                     0
  Comments                   0
  Duplicate points           0
  Faces                      6456
  Groups                     0
  Vertices per face, maximum 3
  Line items                 0
  Points                     3264
  Objects                    0

SET_VERTEX_NORMAL: Recomputed 19368 face vertex normals.

AVE_FACE_NORMAL: Recomputed 6456 face normals
  by averaging face vertex normals.

MINMAX - Data range:

   Minimum   Average   Maximum  Range

X  -230.727921 -11.131607 199.933792 430.661713
Y  -252.825745 1.230821 237.132523 489.958267
Z  -485.068512 -88.905571 125.848976 610.917488

CrystalSpace IVCON Import/Export Log

Input file: convtemp.3ds
Output file: {none}
DATA_REPORT - The input file contains:

  Bad data items             0
  Text lines                 0
  Colors                     0
  Comments                   0
  Duplicate points           0
  Faces                      1087
  Groups                     0
  Vertices per face, maximum 3
  Line items                 0
  Points                     596
  Objects                    0

SET_VERTEX_NORMAL: Recomputed 3261 face vertex normals.

AVE_FACE_NORMAL: Recomputed 1087 face normals
  by averaging face vertex normals.

MINMAX - Data range:

   Minimum   Average   Maximum  Range

X  -7.911269 0.037459 7.948729 15.859998
Y  -11.353171 -3.763129 7.590044 18.943215
Z  0.352159 8.007787 19.593138 19.240979

CrystalSpace IVCON Import/Export Log

Input file: convtemp.3ds
Output file: {none}
DATA_REPORT - The input file contains:

  Bad data items             0
  Text lines                 0
  Colors                     0
  Comments                   0
  Duplicate points           0
  Faces                      723
  Groups                     0
  Vertices per face, maximum 3
  Line items                 0
  Points                     385
  Objects                    0

SET_VERTEX_NORMAL: Recomputed 2169 face vertex normals.

AVE_FACE_NORMAL: Recomputed 723 face normals
  by averaging face vertex normals.

MINMAX - Data range:

   Minimum   Average   Maximum  Range

X  -18.799999 7.515299 38.396099 57.196098
Y  -74.000000 -39.049202 0.000000 74.000000
Z  -0.000000 17.622810 22.799999 22.799999

CrystalSpace IVCON Import/Export Log

Input file: convtemp.3ds
Output file: {none}
DATA_REPORT - The input file contains:

  Bad data items             0
  Text lines                 0
  Colors                     0
  Comments                   0
  Duplicate points           0
  Faces                      2672
  Groups                     0
  Vertices per face, maximum 3
  Line items                 0
  Points                     1418
  Objects                    0

SET_VERTEX_NORMAL: Recomputed 8016 face vertex normals.

AVE_FACE_NORMAL: Recomputed 2672 face normals
  by averaging face vertex normals.

MINMAX - Data range:

   Minimum   Average   Maximum  Range

X  -4.728093 0.696247 4.771907 9.500000
Y  -4.791592 -0.035084 4.708411 9.500003
Z  0.206267 10.056189 16.777769 16.571502

CrystalSpace IVCON Import/Export Log

Input file: convtemp.3ds
Output file: {none}
DATA_REPORT - The input file contains:

  Bad data items             0
  Text lines                 0
  Colors                     0
  Comments                   0
  Duplicate points           0
  Faces                      320
  Groups                     0
  Vertices per face, maximum 3
  Line items                 0
  Points                     176
  Objects                    0

SET_VERTEX_NORMAL: Recomputed 960 face vertex normals.

AVE_FACE_NORMAL: Recomputed 320 face normals
  by averaging face vertex normals.

MINMAX - Data range:

   Minimum   Average   Maximum  Range

X  -3.157044 0.356710 3.710357 6.867401
Y  -2.346104 1.261024 3.895278 6.241381
Z  0.347031 1.322281 2.300923 1.953892

CrystalSpace IVCON Import/Export Log

Input file: convtemp.3ds
Output file: {none}
DATA_REPORT - The input file contains:

  Bad data items             0
  Text lines                 0
  Colors                     0
  Comments                   0
  Duplicate points           0
  Faces                      2120
  Groups                     0
  Vertices per face, maximum 3
  Line items                 0
  Points                     1080
  Objects                    0

SET_VERTEX_NORMAL: Recomputed 6360 face vertex normals.

AVE_FACE_NORMAL: Recomputed 2120 face normals
  by averaging face vertex normals.

MINMAX - Data range:

   Minimum   Average   Maximum  Range

X  -9.294492 -0.258839 10.901754 20.196246
Y  -4.369236 0.248494 2.566483 6.935719
Z  0.019493 1.669340 3.260172 3.240678

CrystalSpace IVCON Import/Export Log

Input file: convtemp.3ds
Output file: {none}
DATA_REPORT - The input file contains:

  Bad data items             0
  Text lines                 0
  Colors                     0
  Comments                   0
  Duplicate points           0
  Faces                      12
  Groups                     0
  Vertices per face, maximum 3
  Line items                 0
  Points                     24
  Objects                    0

SET_VERTEX_NORMAL: Recomputed 36 face vertex normals.

AVE_FACE_NORMAL: Recomputed 12 face normals
  by averaging face vertex normals.

MINMAX - Data range:

   Minimum   Average   Maximum  Range

X  -0.499000 0.001000 0.501000 1.000000
Y  -0.499000 0.001000 0.501000 1.000000
Z  0.021492 0.521492 1.021492 1.000000

CrystalSpace IVCON Import/Export Log

Input file: convtemp.3DS
Output file: {none}
DATA_REPORT - The input file contains:

  Bad data items             0
  Text lines                 0
  Colors                     0
  Comments                   0
  Duplicate points           0
  Faces                      6456
  Groups                     0
  Vertices per face, maximum 3
  Line items                 0
  Points                     3264
  Objects                    0

SET_VERTEX_NORMAL: Recomputed 19368 face vertex normals.

AVE_FACE_NORMAL: Recomputed 6456 face normals
  by averaging face vertex normals.

MINMAX - Data range:

   Minimum   Average   Maximum  Range

X  -230.727921 -11.131607 199.933792 430.661713
Y  -252.825745 1.230821 237.132523 489.958267
Z  -485.068512 -88.905571 125.848976 610.917488

CrystalSpace IVCON Import/Export Log

Input file: convtemp.3ds
Output file: {none}
DATA_REPORT - The input file contains:

  Bad data items             0
  Text lines                 0
  Colors                     0
  Comments                   0
  Duplicate points           0
  Faces                      1087
  Groups                     0
  Vertices per face, maximum 3
  Line items                 0
  Points                     596
  Objects                    0

SET_VERTEX_NORMAL: Recomputed 3261 face vertex normals.

AVE_FACE_NORMAL: Recomputed 1087 face normals
  by averaging face vertex normals.

MINMAX - Data range:

   Minimum   Average   Maximum  Range

X  -7.911269 0.037459 7.948729 15.859998
Y  -11.353171 -3.763129 7.590044 18.943215
Z  0.352159 8.007787 19.593138 19.240979

CrystalSpace IVCON Import/Export Log

Input file: convtemp.3ds
Output file: {none}
DATA_REPORT - The input file contains:

  Bad data items             0
  Text lines                 0
  Colors                     0
  Comments                   0
  Duplicate points           0
  Faces                      723
  Groups                     0
  Vertices per face, maximum 3
  Line items                 0
  Points                     385
  Objects                    0

SET_VERTEX_NORMAL: Recomputed 2169 face vertex normals.

AVE_FACE_NORMAL: Recomputed 723 face normals
  by averaging face vertex normals.

MINMAX - Data range:

   Minimum   Average   Maximum  Range

X  -18.799999 7.515299 38.396099 57.196098
Y  -74.000000 -39.049202 0.000000 74.000000
Z  -0.000000 17.622810 22.799999 22.799999

CrystalSpace IVCON Import/Export Log

Input file: convtemp.3ds
Output file: {none}
DATA_REPORT - The input file contains:

  Bad data items             0
  Text lines                 0
  Colors                     0
  Comments                   0
  Duplicate points           0
  Faces                      2672
  Groups                     0
  Vertices per face, maximum 3
  Line items                 0
  Points                     1418
  Objects                    0

SET_VERTEX_NORMAL: Recomputed 8016 face vertex normals.

AVE_FACE_NORMAL: Recomputed 2672 face normals
  by averaging face vertex normals.

MINMAX - Data range:

   Minimum   Average   Maximum  Range

X  -4.728093 0.696247 4.771907 9.500000
Y  -4.791592 -0.035084 4.708411 9.500003
Z  0.206267 10.056189 16.777769 16.571502

CrystalSpace IVCON Import/Export Log

Input file: convtemp.3ds
Output file: {none}
DATA_REPORT - The input file contains:

  Bad data items             0
  Text lines                 0
  Colors                     0
  Comments                   0
  Duplicate points           0
  Faces                      320
  Groups                     0
  Vertices per face, maximum 3
  Line items                 0
  Points                     176
  Objects                    0

SET_VERTEX_NORMAL: Recomputed 960 face vertex normals.

AVE_FACE_NORMAL: Recomputed 320 face normals
  by averaging face vertex normals.

MINMAX - Data range:

   Minimum   Average   Maximum  Range

X  -3.157044 0.356710 3.710357 6.867401
Y  -2.346104 1.261024 3.895278 6.241381
Z  0.347031 1.322281 2.300923 1.953892

CrystalSpace IVCON Import/Export Log

Input file: convtemp.3ds
Output file: {none}
DATA_REPORT - The input file contains:

  Bad data items             0
  Text lines                 0
  Colors                     0
  Comments                   0
  Duplicate points           0
  Faces                      2120
  Groups                     0
  Vertices per face, maximum 3
  Line items                 0
  Points                     1080
  Objects                    0

SET_VERTEX_NORMAL: Recomputed 6360 face vertex normals.

AVE_FACE_NORMAL: Recomputed 2120 face normals
  by averaging face vertex normals.

MINMAX - Data range:

   Minimum   Average   Maximum  Range

X  -9.294492 -0.258839 10.901754 20.196246
Y  -4.369236 0.248494 2.566483 6.935719
Z  0.019493 1.669340 3.260172 3.240678

CrystalSpace IVCON Import/Export Log

Input file: convtemp.3ds
Output file: {none}
DATA_REPORT - The input file contains:

  Bad data items             0
  Text lines                 0
  Colors                     0
  Comments                   0
  Duplicate points           0
  Faces                      12
  Groups                     0
  Vertices per face, maximum 3
  Line items                 0
  Points                     24
  Objects                    0

SET_VERTEX_NORMAL: Recomputed 36 face vertex normals.

AVE_FACE_NORMAL: Recomputed 12 face normals
  by averaging face vertex normals.

MINMAX - Data range:

   Minimum   Average   Maximum  Range

X  -0.499000 0.001000 0.501000 1.000000
Y  -0.499000 0.001000 0.501000 1.000000
Z  0.021492 0.521492 1.021492 1.000000

CrystalSpace IVCON Import/Export Log

Input file: convtemp.3DS
Output file: {none}
DATA_REPORT - The input file contains:

  Bad data items             0
  Text lines                 0
  Colors                     0
  Comments                   0
  Duplicate points           0
  Faces                      6456
  Groups                     0
  Vertices per face, maximum 3
  Line items                 0
  Points                     3264
  Objects                    0

SET_VERTEX_NORMAL: Recomputed 19368 face vertex normals.

AVE_FACE_NORMAL: Recomputed 6456 face normals
  by averaging face vertex normals.

MINMAX - Data range:

   Minimum   Average   Maximum  Range

X  -230.727921 -11.131607 199.933792 430.661713
Y  -252.825745 1.230821 237.132523 489.958267
Z  -485.068512 -88.905571 125.848976 610.917488

CrystalSpace IVCON Import/Export Log

Input file: convtemp.3ds
Output file: {none}
DATA_REPORT - The input file contains:

  Bad data items             0
  Text lines                 0
  Colors                     0
  Comments                   0
  Duplicate points           0
  Faces                      1087
  Groups                     0
  Vertices per face, maximum 3
  Line items                 0
  Points                     596
  Objects                    0

SET_VERTEX_NORMAL: Recomputed 3261 face vertex normals.

AVE_FACE_NORMAL: Recomputed 1087 face normals
  by averaging face vertex normals.

MINMAX - Data range:

   Minimum   Average   Maximum  Range

X  -7.911269 0.037459 7.948729 15.859998
Y  -11.353171 -3.763129 7.590044 18.943215
Z  0.352159 8.007787 19.593138 19.240979

CrystalSpace IVCON Import/Export Log

Input file: convtemp.3ds
Output file: {none}
DATA_REPORT - The input file contains:

  Bad data items             0
  Text lines                 0
  Colors                     0
  Comments                   0
  Duplicate points           0
  Faces                      723
  Groups                     0
  Vertices per face, maximum 3
  Line items                 0
  Points                     385
  Objects                    0

SET_VERTEX_NORMAL: Recomputed 2169 face vertex normals.

AVE_FACE_NORMAL: Recomputed 723 face normals
  by averaging face vertex normals.

MINMAX - Data range:

   Minimum   Average   Maximum  Range

X  -18.799999 7.515299 38.396099 57.196098
Y  -74.000000 -39.049202 0.000000 74.000000
Z  -0.000000 17.622810 22.799999 22.799999

CrystalSpace IVCON Import/Export Log

Input file: convtemp.3ds
Output file: {none}
DATA_REPORT - The input file contains:

  Bad data items             0
  Text lines                 0
  Colors                     0
  Comments                   0
  Duplicate points           0
  Faces                      2672
  Groups                     0
  Vertices per face, maximum 3
  Line items                 0
  Points                     1418
  Objects                    0

SET_VERTEX_NORMAL: Recomputed 8016 face vertex normals.

AVE_FACE_NORMAL: Recomputed 2672 face normals
  by averaging face vertex normals.

MINMAX - Data range:

   Minimum   Average   Maximum  Range

X  -4.728093 0.696247 4.771907 9.500000
Y  -4.791592 -0.035084 4.708411 9.500003
Z  0.206267 10.056189 16.777769 16.571502

CrystalSpace IVCON Import/Export Log

Input file: convtemp.3ds
Output file: {none}
DATA_REPORT - The input file contains:

  Bad data items             0
  Text lines                 0
  Colors                     0
  Comments                   0
  Duplicate points           0
  Faces                      320
  Groups                     0
  Vertices per face, maximum 3
  Line items                 0
  Points                     176
  Objects                    0

SET_VERTEX_NORMAL: Recomputed 960 face vertex normals.

AVE_FACE_NORMAL: Recomputed 320 face normals
  by averaging face vertex normals.

MINMAX - Data range:

   Minimum   Average   Maximum  Range

X  -3.157044 0.356710 3.710357 6.867401
Y  -2.346104 1.261024 3.895278 6.241381
Z  0.347031 1.322281 2.300923 1.953892

CrystalSpace IVCON Import/Export Log

Input file: convtemp.3ds
Output file: {none}
DATA_REPORT - The input file contains:

  Bad data items             0
  Text lines                 0
  Colors                     0
  Comments                   0
  Duplicate points           0
  Faces                      2120
  Groups                     0
  Vertices per face, maximum 3
  Line items                 0
  Points                     1080
  Objects                    0

SET_VERTEX_NORMAL: Recomputed 6360 face vertex normals.

AVE_FACE_NORMAL: Recomputed 2120 face normals
  by averaging face vertex normals.

MINMAX - Data range:

   Minimum   Average   Maximum  Range

X  -9.294492 -0.258839 10.901754 20.196246
Y  -4.369236 0.248494 2.566483 6.935719
Z  0.019493 1.669340 3.260172 3.240678

CrystalSpace IVCON Import/Export Log

Input file: convtemp.3ds
Output file: {none}
DATA_REPORT - The input file contains:

  Bad data items             0
  Text lines                 0
  Colors                     0
  Comments                   0
  Duplicate points           0
  Faces                      12
  Groups                     0
  Vertices per face, maximum 3
  Line items                 0
  Points                     24
  Objects                    0

SET_VERTEX_NORMAL: Recomputed 36 face vertex normals.

AVE_FACE_NORMAL: Recomputed 12 face normals
  by averaging face vertex normals.

MINMAX - Data range:

   Minimum   Average   Maximum  Range

X  -0.499000 0.001000 0.501000 1.000000
Y  -0.499000 0.001000 0.501000 1.000000
Z  0.021492 0.521492 1.021492 1.000000

CrystalSpace IVCON Import/Export Log

Input file: convtemp.3DS
Output file: {none}
DATA_REPORT - The input file contains:

  Bad data items             0
  Text lines                 0
  Colors                     0
  Comments                   0
  Duplicate points           0
  Faces                      6456
  Groups                     0
  Vertices per face, maximum 3
  Line items                 0
  Points                     3264
  Objects                    0

SET_VERTEX_NORMAL: Recomputed 19368 face vertex normals.

AVE_FACE_NORMAL: Recomputed 6456 face normals
  by averaging face vertex normals.

MINMAX - Data range:

   Minimum   Average   Maximum  Range

X  -230.727921 -11.131607 199.933792 430.661713
Y  -252.825745 1.230821 237.132523 489.958267
Z  -485.068512 -88.905571 125.848976 610.917488

CrystalSpace IVCON Import/Export Log

Input file: convtemp.3ds
Output file: {none}
DATA_REPORT - The input file contains:

  Bad data items             0
  Text lines                 0
  Colors                     0
  Comments                   0
  Duplicate points           0
  Faces                      1087
  Groups                     0
  Vertices per face, maximum 3
  Line items                 0
  Points                     596
  Objects                    0

SET_VERTEX_NORMAL: Recomputed 3261 face vertex normals.

AVE_FACE_NORMAL: Recomputed 1087 face normals
  by averaging face vertex normals.

MINMAX - Data range:

   Minimum   Average   Maximum  Range

X  -7.911269 0.037459 7.948729 15.859998
Y  -11.353171 -3.763129 7.590044 18.943215
Z  0.352159 8.007787 19.593138 19.240979

CrystalSpace IVCON Import/Export Log

Input file: convtemp.3ds
Output file: {none}
DATA_REPORT - The input file contains:

  Bad data items             0
  Text lines                 0
  Colors                     0
  Comments                   0
  Duplicate points           0
  Faces                      723
[...]
Y  -11.353171 -3.763128 7.590044 18.943215
Z  0.352159 8.007798 19.593138 19.240979

CrystalSpace IVCON Import/Export Log

Input file: convtemp.3ds
Output file: {none}
DATA_REPORT - The input file contains:

  Bad data items             0
  Text lines                 0
  Colors                     0
  Comments                   0
  Duplicate points           0
  Faces                      723
  Groups                     0
  Vertices per face, maximum 3
  Line items                 0
  Points                     385
  Objects                    0

SET_VERTEX_NORMAL: Recomputed 2169 face vertex normals.

AVE_FACE_NORMAL: Recomputed 723 face normals
  by averaging face vertex normals.

MINMAX - Data range:

   Minimum   Average   Maximum  Range

X  -18.799999 7.515304 38.396099 57.196098
Y  -74.000000 -39.049206 0.000000 74.000000
Z  -0.000000 17.622835 22.799999 22.799999

CrystalSpace IVCON Import/Export Log

Input file: convtemp.3ds
Output file: {none}
DATA_REPORT - The input file contains:

  Bad data items             0
  Text lines                 0
  Colors                     0
  Comments                   0
  Duplicate points           0
  Faces                      2672
  Groups                     0
  Vertices per face, maximum 3
  Line items                 0
  Points                     1418
  Objects                    0

SET_VERTEX_NORMAL: Recomputed 8016 face vertex normals.

AVE_FACE_NORMAL: Recomputed 2672 face normals
  by averaging face vertex normals.

MINMAX - Data range:

   Minimum   Average   Maximum  Range

X  -4.728093 0.696247 4.771907 9.500000
Y  -4.791592 -0.035083 4.708411 9.500003
Z  0.206267 10.056180 16.777769 16.571502

CrystalSpace IVCON Import/Export Log

Input file: convtemp.3ds
Output file: {none}
DATA_REPORT - The input file contains:

  Bad data items             0
  Text lines                 0
  Colors                     0
  Comments                   0
  Duplicate points           0
  Faces                      320
  Groups                     0
  Vertices per face, maximum 3
  Line items                 0
  Points                     176
  Objects                    0

SET_VERTEX_NORMAL: Recomputed 960 face vertex normals.

AVE_FACE_NORMAL: Recomputed 320 face normals
  by averaging face vertex normals.

MINMAX - Data range:

   Minimum   Average   Maximum  Range

X  -3.157044 0.356710 3.710357 6.867401
Y  -2.346104 1.261025 3.895278 6.241381
Z  0.347031 1.322281 2.300923 1.953892

CrystalSpace IVCON Import/Export Log

Input file: convtemp.3ds
Output file: {none}
DATA_REPORT - The input file contains:

  Bad data items             0
  Text lines                 0
  Colors                     0
  Comments                   0
  Duplicate points           0
  Faces                      2120
  Groups                     0
  Vertices per face, maximum 3
  Line items                 0
  Points                     1080
  Objects                    0

SET_VERTEX_NORMAL: Recomputed 6360 face vertex normals.

AVE_FACE_NORMAL: Recomputed 2120 face normals
  by averaging face vertex normals.

MINMAX - Data range:

   Minimum   Average   Maximum  Range

X  -9.294492 -0.258839 10.901754 20.196246
Y  -4.369236 0.248493 2.566483 6.935719
Z  0.019493 1.669338 3.260172 3.240678

CrystalSpace IVCON Import/Export Log

Input file: convtemp.3ds
Output file: {none}
DATA_REPORT - The input file contains:

  Bad data items             0
  Text lines                 0
  Colors                     0
  Comments                   0
  Duplicate points           0
  Faces                      12
  Groups                     0
  Vertices per face, maximum 3
  Line items                 0
  Points                     24
  Objects                    0

SET_VERTEX_NORMAL: Recomputed 36 face vertex normals.

AVE_FACE_NORMAL: Recomputed 12 face normals
  by averaging face vertex normals.

MINMAX - Data range:

   Minimum   Average   Maximum  Range

X  -5.031258 -0.031258 4.968742 10.000000
Y  -5.031258 -0.031258 4.968742 10.000000
Z  0.166656 5.166653 10.166650 9.999994

CrystalSpace IVCON Import/Export Log

Input file: convtemp.3ds
Output file: {none}
DATA_REPORT - The input file contains:

  Bad data items             0
  Text lines                 0
  Colors                     0
  Comments                   0
  Duplicate points           0
  Faces                      576
  Groups                     0
  Vertices per face, maximum 3
  Line items                 0
  Points                     514
  Objects                    0

SET_VERTEX_NORMAL: Recomputed 1728 face vertex normals.

AVE_FACE_NORMAL: Recomputed 576 face normals
  by averaging face vertex normals.

MINMAX - Data range:

   Minimum   Average   Maximum  Range

X  -8.346122 2.792532 14.756076 23.102198
Y  -4.629176 4.099283 12.497144 17.126320
Z  0.750998 33.234562 55.774651 55.023653

CrystalSpace IVCON Import/Export Log

Input file: convtemp.mdl
Output file: {none}
DATA_REPORT - The input file contains:

  Bad data items             0
  Text lines                 0
  Colors                     0
  Comments                   0
  Duplicate points           0
  Faces                      408
  Groups                     0
  Vertices per face, maximum 3
  Line items                 0
  Points                     317
  Objects                    143

SET_VERTEX_NORMAL: Recomputed 1224 face vertex normals.

AVE_FACE_NORMAL: Recomputed 408 face normals
  by averaging face vertex normals.

MINMAX - Data range:

   Minimum   Average   Maximum  Range

X  0.000000 0.000000 0.000000 0.000000
Y  0.000000 0.000000 0.000000 0.000000
Z  0.000000 0.000000 0.000000 0.000000

CrystalSpace IVCON Import/Export Log

Input file: convtemp.3DS
Output file: {none}
DATA_REPORT - The input file contains:

  Bad data items             0
  Text lines                 0
  Colors                     0
  Comments                   0
  Duplicate points           0
  Faces                      6456
  Groups                     0
  Vertices per face, maximum 3
  Line items                 0
  Points                     3264
  Objects                    0

SET_VERTEX_NORMAL: Recomputed 19368 face vertex normals.

AVE_FACE_NORMAL: Recomputed 6456 face normals
  by averaging face vertex normals.

MINMAX - Data range:

   Minimum   Average   Maximum  Range

X  -230.727921 -11.131609 199.933792 430.661713
Y  -252.825745 1.230811 237.132523 489.958267
Z  -485.068512 -88.905510 125.848976 610.917488

CrystalSpace IVCON Import/Export Log

Input file: convtemp.3ds
Output file: {none}
DATA_REPORT - The input file contains:

  Bad data items             0
  Text lines                 0
  Colors                     0
  Comments                   0
  Duplicate points           0
  Faces                      1087
  Groups                     0
  Vertices per face, maximum 3
  Line items                 0
  Points                     596
  Objects                    0

SET_VERTEX_NORMAL: Recomputed 3261 face vertex normals.

AVE_FACE_NORMAL: Recomputed 1087 face normals
  by averaging face vertex normals.

MINMAX - Data range:

   Minimum   Average   Maximum  Range

X  -7.911269 0.037459 7.948729 15.859998
Y  -11.353171 -3.763128 7.590044 18.943215
Z  0.352159 8.007798 19.593138 19.240979

CrystalSpace IVCON Import/Export Log

Input file: convtemp.3ds
Output file: {none}
DATA_REPORT - The input file contains:

  Bad data items             0
  Text lines                 0
  Colors                     0
  Comments                   0
  Duplicate points           0
  Faces                      723
  Groups                     0
  Vertices per face, maximum 3
  Line items                 0
  Points                     385
  Objects                    0

SET_VERTEX_NORMAL: Recomputed 2169 face vertex normals.

AVE_FACE_NORMAL: Recomputed 723 face normals
  by averaging face vertex normals.

MINMAX - Data range:

   Minimum   Average   Maximum  Range

X  -18.799999 7.515304 38.396099 57.196098
Y  -74.000000 -39.049206 0.000000 74.000000
Z  -0.000000 17.622835 22.799999 22.799999

CrystalSpace IVCON Import/Export Log

Input file: convtemp.3ds
Output file: {none}
DATA_REPORT - The input file contains:

  Bad data items             0
  Text lines                 0
  Colors                     0
  Comments                   0
  Duplicate points           0
  Faces                      2672
  Groups                     0
  Vertices per face, maximum 3
  Line items                 0
  Points                     1418
  Objects                    0

SET_VERTEX_NORMAL: Recomputed 8016 face vertex normals.

AVE_FACE_NORMAL: Recomputed 2672 face normals
  by averaging face vertex normals.

MINMAX - Data range:

   Minimum   Average   Maximum  Range

X  -4.728093 0.696247 4.771907 9.500000
Y  -4.791592 -0.035083 4.708411 9.500003
Z  0.206267 10.056180 16.777769 16.571502

CrystalSpace IVCON Import/Export Log

Input file: convtemp.3ds
Output file: {none}
DATA_REPORT - The input file contains:

  Bad data items             0
  Text lines                 0
  Colors                     0
  Comments                   0
  Duplicate points           0
  Faces                      320
  Groups                     0
  Vertices per face, maximum 3
  Line items                 0
  Points                     176
  Objects                    0

SET_VERTEX_NORMAL: Recomputed 960 face vertex normals.

AVE_FACE_NORMAL: Recomputed 320 face normals
  by averaging face vertex normals.

MINMAX - Data range:

   Minimum   Average   Maximum  Range

X  -3.157044 0.356710 3.710357 6.867401
Y  -2.346104 1.261025 3.895278 6.241381
Z  0.347031 1.322281 2.300923 1.953892

CrystalSpace IVCON Import/Export Log

Input file: convtemp.3ds
Output file: {none}
DATA_REPORT - The input file contains:

  Bad data items             0
  Text lines                 0
  Colors                     0
  Comments                   0
  Duplicate points           0
  Faces                      2120
  Groups                     0
  Vertices per face, maximum 3
  Line items                 0
  Points                     1080
  Objects                    0

SET_VERTEX_NORMAL: Recomputed 6360 face vertex normals.

AVE_FACE_NORMAL: Recomputed 2120 face normals
  by averaging face vertex normals.

MINMAX - Data range:

   Minimum   Average   Maximum  Range

X  -9.294492 -0.258839 10.901754 20.196246
Y  -4.369236 0.248493 2.566483 6.935719
Z  0.019493 1.669338 3.260172 3.240678

CrystalSpace IVCON Import/Export Log

Input file: convtemp.3ds
Output file: {none}
DATA_REPORT - The input file contains:

  Bad data items             0
  Text lines                 0
  Colors                     0
  Comments                   0
  Duplicate points           0
  Faces                      12
  Groups                     0
  Vertices per face, maximum 3
  Line items                 0
  Points                     24
  Objects                    0

SET_VERTEX_NORMAL: Recomputed 36 face vertex normals.

AVE_FACE_NORMAL: Recomputed 12 face normals
  by averaging face vertex normals.

MINMAX - Data range:

   Minimum   Average   Maximum  Range

X  -5.031258 -0.031258 4.968742 10.000000
Y  -5.031258 -0.031258 4.968742 10.000000
Z  0.166656 5.166653 10.166650 9.999994

CrystalSpace IVCON Import/Export Log

Input file: convtemp.3ds
Output file: {none}
DATA_REPORT - The input file contains:

  Bad data items             0
  Text lines                 0
  Colors                     0
  Comments                   0
  Duplicate points           0
  Faces                      576
  Groups                     0
  Vertices per face, maximum 3
  Line items                 0
  Points                     514
  Objects                    0

SET_VERTEX_NORMAL: Recomputed 1728 face vertex normals.

AVE_FACE_NORMAL: Recomputed 576 face normals
  by averaging face vertex normals.

MINMAX - Data range:

   Minimum   Average   Maximum  Range

X  -8.346122 2.792532 14.756076 23.102198
Y  -4.629176 4.099283 12.497144 17.126320
Z  0.750998 33.234562 55.774651 55.023653

CrystalSpace IVCON Import/Export Log

Input file: convtemp.mdl
Output file: {none}
DATA_REPORT - The input file contains:

  Bad data items             0
  Text lines                 0
  Colors                     0
  Comments                   0
  Duplicate points           0
  Faces                      408
  Groups                     0
  Vertices per face, maximum 3
  Line items                 0
  Points                     317
  Objects                    143

SET_VERTEX_NORMAL: Recomputed 1224 face vertex normals.

AVE_FACE_NORMAL: Recomputed 408 face normals
  by averaging face vertex normals.

MINMAX - Data range:

   Minimum   Average   Maximum  Range

X  0.000000 0.000000 0.000000 0.000000
Y  0.000000 0.000000 0.000000 0.000000
Z  0.000000 0.000000 0.000000 0.000000

CrystalSpace IVCON Import/Export Log

Input file: convtemp.3DS
Output file: {none}
DATA_REPORT - The input file contains:

  Bad data items             0
  Text lines                 0
  Colors                     0
  Comments                   0
  Duplicate points           0
  Faces                      6456
  Groups                     0
  Vertices per face, maximum 3
  Line items                 0
  Points                     3264
  Objects                    0

SET_VERTEX_NORMAL: Recomputed 19368 face vertex normals.

AVE_FACE_NORMAL: Recomputed 6456 face normals
  by averaging face vertex normals.

MINMAX - Data range:

   Minimum   Average   Maximum  Range

X  -230.727921 -11.131609 199.933792 430.661713
Y  -252.825745 1.230811 237.132523 489.958267
Z  -485.068512 -88.905510 125.848976 610.917488

CrystalSpace IVCON Import/Export Log

Input file: convtemp.3ds
Output file: {none}
DATA_REPORT - The input file contains:

  Bad data items             0
  Text lines                 0
  Colors                     0
  Comments                   0
  Duplicate points           0
  Faces                      1087
  Groups                     0
  Vertices per face, maximum 3
  Line items                 0
  Points                     596
  Objects                    0

SET_VERTEX_NORMAL: Recomputed 3261 face vertex normals.

AVE_FACE_NORMAL: Recomputed 1087 face normals
  by averaging face vertex normals.

MINMAX - Data range:

   Minimum   Average   Maximum  Range

X  -7.911269 0.037459 7.948729 15.859998
Y  -11.353171 -3.763128 7.590044 18.943215
Z  0.352159 8.007798 19.593138 19.240979

CrystalSpace IVCON Import/Export Log

Input file: convtemp.3ds
Output file: {none}
DATA_REPORT - The input file contains:

  Bad data items             0
  Text lines                 0
  Colors                     0
  Comments                   0
  Duplicate points           0
  Faces                      723
  Groups                     0
  Vertices per face, maximum 3
  Line items                 0
  Points                     385
  Objects                    0

SET_VERTEX_NORMAL: Recomputed 2169 face vertex normals.

AVE_FACE_NORMAL: Recomputed 723 face normals
  by averaging face vertex normals.

MINMAX - Data range:

   Minimum   Average   Maximum  Range

X  -18.799999 7.515304 38.396099 57.196098
Y  -74.000000 -39.049206 0.000000 74.000000
Z  -0.000000 17.622835 22.799999 22.799999

CrystalSpace IVCON Import/Export Log

Input file: convtemp.3ds
Output file: {none}
DATA_REPORT - The input file contains:

  Bad data items             0
  Text lines                 0
  Colors                     0
  Comments                   0
  Duplicate points           0
  Faces                      2672
  Groups                     0
  Vertices per face, maximum 3
  Line items                 0
  Points                     1418
  Objects                    0

SET_VERTEX_NORMAL: Recomputed 8016 face vertex normals.

AVE_FACE_NORMAL: Recomputed 2672 face normals
  by averaging face vertex normals.

MINMAX - Data range:

   Minimum   Average   Maximum  Range

X  -4.728093 0.696247 4.771907 9.500000
Y  -4.791592 -0.035083 4.708411 9.500003
Z  0.206267 10.056180 16.777769 16.571502

CrystalSpace IVCON Import/Export Log

Input file: convtemp.3ds
Output file: {none}
DATA_REPORT - The input file contains:

  Bad data items             0
  Text lines                 0
  Colors                     0
  Comments                   0
  Duplicate points           0
  Faces                      320
  Groups                     0
  Vertices per face, maximum 3
  Line items                 0
  Points                     176
  Objects                    0

SET_VERTEX_NORMAL: Recomputed 960 face vertex normals.

AVE_FACE_NORMAL: Recomputed 320 face normals
  by averaging face vertex normals.

MINMAX - Data range:

   Minimum   Average   Maximum  Range

X  -3.157044 0.356710 3.710357 6.867401
Y  -2.346104 1.261025 3.895278 6.241381
Z  0.347031 1.322281 2.300923 1.953892

CrystalSpace IVCON Import/Export Log

Input file: convtemp.3ds
Output file: {none}
DATA_REPORT - The input file contains:

  Bad data items             0
  Text lines                 0
  Colors                     0
  Comments                   0
  Duplicate points           0
  Faces                      2120
  Groups                     0
  Vertices per face, maximum 3
  Line items                 0
  Points                     1080
  Objects                    0

SET_VERTEX_NORMAL: Recomputed 6360 face vertex normals.

AVE_FACE_NORMAL: Recomputed 2120 face normals
  by averaging face vertex normals.

MINMAX - Data range:

   Minimum   Average   Maximum  Range

X  -9.294492 -0.258839 10.901754 20.196246
Y  -4.369236 0.248493 2.566483 6.935719
Z  0.019493 1.669338 3.260172 3.240678

CrystalSpace IVCON Import/Export Log

Input file: convtemp.3ds
Output file: {none}
DATA_REPORT - The input file contains:

  Bad data items             0
  Text lines                 0
  Colors                     0
  Comments                   0
  Duplicate points           0
  Faces                      12
  Groups                     0
  Vertices per face, maximum 3
  Line items                 0
  Points                     24
  Objects                    0

SET_VERTEX_NORMAL: Recomputed 36 face vertex normals.

AVE_FACE_NORMAL: Recomputed 12 face normals
  by averaging face vertex normals.

MINMAX - Data range:

   Minimum   Average   Maximum  Range

X  -5.031258 -0.031258 4.968742 10.000000
Y  -5.031258 -0.031258 4.968742 10.000000
Z  0.166656 5.166653 10.166650 9.999994

CrystalSpace IVCON Import/Export Log

Input file: convtemp.3ds
Output file: {none}
DATA_REPORT - The input file contains:

  Bad data items             0
  Text lines                 0
  Colors                     0
  Comments                   0
  Duplicate points           0
  Faces                      576
  Groups                     0
  Vertices per face, maximum 3
  Line items                 0
  Points                     514
  Objects                    0

SET_VERTEX_NORMAL: Recomputed 1728 face vertex normals.

AVE_FACE_NORMAL: Recomputed 576 face normals
  by averaging face vertex normals.

MINMAX - Data range:

   Minimum   Average   Maximum  Range

X  -8.346122 2.792532 14.756076 23.102198
Y  -4.629176 4.099283 12.497144 17.126320
Z  0.750998 33.234562 55.774651 55.023653

CrystalSpace IVCON Import/Export Log

Input file: convtemp.mdl
Output file: {none}
DATA_REPORT - The input file contains:

  Bad data items             0
  Text lines                 0
  Colors                     0
  Comments                   0
  Duplicate points           0
  Faces                      408
  Groups                     0
  Vertices per face, maximum 3
  Line items                 0
  Points                     317
  Objects                    143

SET_VERTEX_NORMAL: Recomputed 1224 face vertex normals.

AVE_FACE_NORMAL: Recomputed 408 face normals
  by averaging face vertex normals.

MINMAX - Data range:

   Minimum   Average   Maximum  Range

X  0.000000 0.000000 0.000000 0.000000
Y  0.000000 0.000000 0.000000 0.000000
Z  0.000000 0.000000 0.000000 0.000000
