
CrystalSpace IVCON Import/Export Log

Input file: convtemp.3DS
Output file: {none}
DATA_REPORT - The input file contains:

  Bad data items             0
  Text lines                 0
  Colors                     0
  Comments                   0
  Duplicate points           0
  Faces                      6456
  Groups                     0
  Vertices per face, maximum 3
  Line items                 0
  Points                     3264
  Objects                    0

SET_VERTEX_NORMAL: Recomputed 19368 face vertex normals.

AVE_FACE_NORMAL: Recomputed 6456 face normals
  by averaging face vertex normals.

MINMAX - Data range:

   Minimum   Average   Maximum  Range

X  -230.727921 -11.131607 199.933792 430.661713
Y  -252.825745 1.230821 237.132523 489.958267
Z  -485.068512 -88.905571 125.848976 610.917488

CrystalSpace IVCON Import/Export Log

Input file: convtemp.3DS
Output file: {none}
DATA_REPORT - The input file contains:

  Bad data items             0
  Text lines                 0
  Colors                     0
  Comments                   0
  Duplicate points           0
  Faces                      6456
  Groups                     0
  Vertices per face, maximum 3
  Line items                 0
  Points                     3264
  Objects                    0

SET_VERTEX_NORMAL: Recomputed 19368 face vertex normals.

AVE_FACE_NORMAL: Recomputed 6456 face normals
  by averaging face vertex normals.

MINMAX - Data range:

   Minimum   Average   Maximum  Range

X  -230.727921 -11.131607 199.933792 430.661713
Y  -252.825745 1.230821 237.132523 489.958267
Z  -485.068512 -88.905571 125.848976 610.917488

CrystalSpace IVCON Import/Export Log

Input file: convtemp.3DS
Output file: {none}
DATA_REPORT - The input file contains:

  Bad data items             0
  Text lines                 0
  Colors                     0
  Comments                   0
  Duplicate points           0
  Faces                      6456
  Groups                     0
  Vertices per face, maximum 3
  Line items                 0
  Points                     3264
  Objects                    0

SET_VERTEX_NORMAL: Recomputed 19368 face vertex normals.

AVE_FACE_NORMAL: Recomputed 6456 face normals
  by averaging face vertex normals.

MINMAX - Data range:

   Minimum   Average   Maximum  Range

X  -230.727921 -11.131607 199.933792 430.661713
Y  -252.825745 1.230821 237.132523 489.958267
Z  -485.068512 -88.905571 125.848976 610.917488

CrystalSpace IVCON Import/Export Log

Input file: convtemp.3DS
Output file: {none}
DATA_REPORT - The input file contains:

  Bad data items             0
  Text lines                 0
  Colors                     0
  Comments                   0
  Duplicate points           0
  Faces                      6456
  Groups                     0
  Vertices per face, maximum 3
  Line items                 0
  Points                     3264
  Objects                    0

SET_VERTEX_NORMAL: Recomputed 19368 face vertex normals.

AVE_FACE_NORMAL: Recomputed 6456 face normals
  by averaging face vertex normals.

MINMAX - Data range:

   Minimum   Average   Maximum  Range

X  -230.727921 -11.131607 199.933792 430.661713
Y  -252.825745 1.230821 237.132523 489.958267
Z  -485.068512 -88.905571 125.848976 610.917488

CrystalSpace IVCON Import/Export Log

Input file: convtemp.3DS
Output file: {none}
DATA_REPORT - The input file contains:

  Bad data items             0
  Text lines                 0
  Colors                     0
  Comments                   0
  Duplicate points           0
  Faces                      6456
  Groups                     0
  Vertices per face, maximum 3
  Line items                 0
  Points                     3264
  Objects                    0

SET_VERTEX_NORMAL: Recomputed 19368 face vertex normals.

AVE_FACE_NORMAL: Recomputed 6456 face normals
  by averaging face vertex normals.

MINMAX - Data range:

   Minimum   Average   Maximum  Range

X  -230.727921 -11.131607 199.933792 430.661713
Y  -252.825745 1.230821 237.132523 489.958267
Z  -485.068512 -88.905571 125.848976 610.917488
